<?xml version="1.0" encoding="UTF-8"?>

<!-- generated on 01/17/18 10:18:00 by SUMO polyconvert Version 0.31.0
<?xml version="1.0" encoding="UTF-8"?>

<configuration xmlns:xsi="http://www.w3.org/2001/XMLSchema-instance" xsi:noNamespaceSchemaLocation="http://sumo.dlr.de/xsd/polyconvertConfiguration.xsd">

    <input>
        <net-file value="C:\Users\B.Maximcsuk\Sumo\2018-01-17-10-17-52\osm.net.xml"/>
        <osm-files value="osm_bbox.osm.xml"/>
        <osm.keep-full-type value="true"/>
        <type-file value="C:\Program%20Files%20(x86)\DLR\Sumo\data\typemap\osmPolyconvert.typ.xml"/>
    </input>

    <output>
        <output-file value="C:\Users\B.Maximcsuk\Sumo\2018-01-17-10-17-52\osm.poly.xml"/>
    </output>

    <processing>
        <poi-layer-offset value="5"/>
    </processing>

    <report>
        <verbose value="true"/>
    </report>

</configuration>
-->

<additional>

	<!-- <vType id="car_1" accel="0.6" decel="3.5" sigma="0.5" minGap="2.5" length="5" maxSpeed="19.44"/> -->

	<!-- útvonal eloszlások -->
	
		<routeDistribution id="56_6"> <!-- nem lehet kiemelni route-okat :( -->
			<route id="56_59_6" probability="0.11" edges="56_in -gneE136 -gneE135 -gneE138 -gneE134.0 -gneE134.271 -175017439 30133676#0 30133676#1 -28359882 gneE170 gneE171 gneE172 gneE173.0 gneE173.97 59_out"/>
			<route id="56_75_6" probability="0.10" edges="56_in -gneE136 -gneE135 -gneE138 -gneE134.0 -gneE134.271 -175017439 -106505879 -212739776 -106505854 -106505987 -106505990 39_W_i_0 39_W_i 39_E_o 37_W_i 37_E_o -102735078#1 -102735078#0 -164362504#1 -164362504#0.0 -164362504#0.8 35_W_i_0 35_W_i 35_E_o 35_E_o_2 34_W_i 34_S_o -294997384 -294990999 gneE102 gneE175 gneE176 gneE177 75_out"/>
			<route id="56_85_6" probability="0.09" edges="56_in -gneE136 -gneE135 -gneE138 -gneE134.0 -gneE134.271 -175017439 -106505879 -212739776 -106505854 -106505987 -106505990 39_W_i_0 39_W_i 39_E_o 37_W_i 37_E_o -102735078#1 -102735078#0 -164362504#1 -164362504#0.0 -164362504#0.8 35_W_i_0 35_W_i 35_E_o 35_E_o_2 34_W_i 34_E_o -514463212#1.16 32_W_i 32_E_o 31_W_i 31_S_o gneE62 gneE63 48_N_i 48_S_o 50_S_o -129684413#0 -102735081#2 -102735081#1 -102735081#0 102734899 129684414#0 129684414#1 -102734929#3 -102734929#2 -102734929#1 85_out"/>
			<route id="56_18_6" probability="0.14" edges="56_in -gneE136 -gneE135 -gneE138 -gneE134.0 -gneE134.271 -175017439 -106505879 -212739776 -106505854 -106505987 -106505990 39_W_i_0 39_W_i 39_E_o 37_W_i 37_E_o -102735078#1 -102735078#0 -164362504#1 -164362504#0.0 -164362504#0.8 35_W_i_0 35_W_i 35_E_o 35_E_o_2 34_W_i 34_E_o -514463212#1.16 32_W_i 32_E_o 31_W_i 31_E_o gneE82.0 gneE82.3 gneE82.28 gneE83 27832981#0.162.0 29_W_i 29_S_o 46420201#1.0.23.0 46420201#1.0.23.43 19_W_i 19_E_o 19_E_o_2 -102735130#2.376.0 -102735130#2.376.11 -26277048#1 -102735069 gneE163 gneE187 gneE188 gneE192 gneE196 gneE199 gneE165.0 gneE165.116 18_out"/>
			<route id="56_5_6" probability="0.10" edges="56_in -gneE136 -gneE135 -gneE138 -gneE134.0 -gneE134.271 -175017439 -106505879 -212739776 -106505854 -106505987 -106505990 39_W_i_0 39_W_i 39_E_o 37_W_i 37_E_o -102735078#1 -102735078#0 -164362504#1 -164362504#0.0 -164362504#0.8 35_W_i_0 35_W_i 35_E_o 35_E_o_2 34_W_i 34_E_o -514463212#1.16 32_W_i 32_E_o 31_W_i 31_E_o gneE82.0 gneE82.3 gneE82.28 gneE83 27832981#0.162.0 29_W_i gneE105 gneE106 gneE114 28_S_i 28_N_o gneE145 gneE146.0 gneE146.215 5_out"/>
			<route id="56_k27_6" probability="0.08" edges="56_in -gneE136 -gneE135 -gneE138 -gneE134.0 -gneE134.271 -175017439 -106505879 -212739776 -106505854 -106505987 -106505990 39_W_i_0 39_W_i 39_E_o 37_W_i 38_S_i 38_N_o 288154658#0 288154658#1 288154658#2 102409319#5 102409319#6 102409319#7 102409319#0 102409320#0 k27_out"/>
			<route id="56_k31_6" probability="0.01" edges="56_in -gneE136 -gneE135 -gneE138 -gneE134.0 -gneE134.271 -175017439 -106505879 -212739776 -106505854 -106505987 -106505990 39_W_i_0 39_W_i 39_E_o 37_W_i 38_S_i 38_N_o 288154658#0 288154658#1 288154658#2 102409319#5 102409319#6 288154653#0 288154653#1 288154653#2 -28379044 51_S_i 51_N_o 102734923#1.0 102734923#1.51 -313326261#1 -313326261#0 -37144965 32539330 k31_out"/>
			<route id="56_22_6" probability="0.35" edges="56_in -gneE136 -gneE135 -gneE138 -gneE134.0 -gneE134.271 -175017439 -106505879 -212739776 -106505854 -106505987 -106505990 39_W_i_0 39_W_i 39_E_o 37_W_i 37_E_o -102735078#1 -102735078#0 -164362504#1 -164362504#0.0 -164362504#0.8 35_W_i_0 35_W_i 35_E_o 35_E_o_2 34_W_i 34_E_o -514463212#1.16 32_W_i 32_E_o 31_W_i 31_E_o gneE82.0 gneE82.3 gneE82.28 -26298877.85.0 gneE87 gneE151 gneE152.0 gneE152.57 gneE153 gneE154.0 gneE154.47.12 gneE155 gneE156 gneE157 gneE158 gneE159 gneE160 gneE161 22_out"/>
			<route id="56_40S_6" probability="0.02" edges="56_in -gneE136 -gneE135 -gneE138 -gneE134.0 -gneE134.271 -175017439 -106505879 -212739776 -106505854 -106505987 -106505990 39_W_i_0 39_W_i 39_S_o 499396343#0 40_N_i 40_S_o 40S_out"/>
			<route id="56_40W_6" probability="0.01" edges="56_in -gneE136 -gneE135 -gneE138 -gneE134.0 -gneE134.271 -175017439 -106505879 -212739776 -106505854 -106505987 -106505990 39_W_i_0 39_W_i 39_S_o 499396343#0 40_N_i 40_W_o 106505968#0 106505968#1 106505968#2 106505968#3 106505968#4 40W_out"/>
		</routeDistribution>
		
		<routeDistribution id="56_7">
			<route id="56_59_7" probability="0.16" edges="56_in -gneE136 -gneE135 -gneE138 -gneE134.0 -gneE134.271 -175017439 30133676#0 30133676#1 -28359882 gneE170 gneE171 gneE172 gneE173.0 gneE173.97 59_out"/>
			<route id="56_75_7" probability="0.17" edges="56_in -gneE136 -gneE135 -gneE138 -gneE134.0 -gneE134.271 -175017439 -106505879 -212739776 -106505854 -106505987 -106505990 39_W_i_0 39_W_i 39_E_o 37_W_i 37_E_o -102735078#1 -102735078#0 -164362504#1 -164362504#0.0 -164362504#0.8 35_W_i_0 35_W_i 35_E_o 35_E_o_2 34_W_i 34_S_o -294997384 -294990999 gneE102 gneE175 gneE176 gneE177 75_out"/>
			<route id="56_85_7" probability="0.11" edges="56_in -gneE136 -gneE135 -gneE138 -gneE134.0 -gneE134.271 -175017439 -106505879 -212739776 -106505854 -106505987 -106505990 39_W_i_0 39_W_i 39_E_o 37_W_i 37_E_o -102735078#1 -102735078#0 -164362504#1 -164362504#0.0 -164362504#0.8 35_W_i_0 35_W_i 35_E_o 35_E_o_2 34_W_i 34_E_o -514463212#1.16 32_W_i 32_E_o 31_W_i 31_S_o gneE62 gneE63 48_N_i 48_S_o 50_S_o -129684413#0 -102735081#2 -102735081#1 -102735081#0 102734899 129684414#0 129684414#1 -102734929#3 -102734929#2 -102734929#1 85_out"/>
			<route id="56_18_7" probability="0.12" edges="56_in -gneE136 -gneE135 -gneE138 -gneE134.0 -gneE134.271 -175017439 -106505879 -212739776 -106505854 -106505987 -106505990 39_W_i_0 39_W_i 39_E_o 37_W_i 37_E_o -102735078#1 -102735078#0 -164362504#1 -164362504#0.0 -164362504#0.8 35_W_i_0 35_W_i 35_E_o 35_E_o_2 34_W_i 34_E_o -514463212#1.16 32_W_i 32_E_o 31_W_i 31_E_o gneE82.0 gneE82.3 gneE82.28 gneE83 27832981#0.162.0 29_W_i 29_S_o 46420201#1.0.23.0 46420201#1.0.23.43 19_W_i 19_E_o 19_E_o_2 -102735130#2.376.0 -102735130#2.376.11 -26277048#1 -102735069 gneE163 gneE187 gneE188 gneE192 gneE196 gneE199 gneE165.0 gneE165.116 18_out"/>
			<route id="56_5_7" probability="0.09" edges="56_in -gneE136 -gneE135 -gneE138 -gneE134.0 -gneE134.271 -175017439 -106505879 -212739776 -106505854 -106505987 -106505990 39_W_i_0 39_W_i 39_E_o 37_W_i 37_E_o -102735078#1 -102735078#0 -164362504#1 -164362504#0.0 -164362504#0.8 35_W_i_0 35_W_i 35_E_o 35_E_o_2 34_W_i 34_E_o -514463212#1.16 32_W_i 32_E_o 31_W_i 31_E_o gneE82.0 gneE82.3 gneE82.28 gneE83 27832981#0.162.0 29_W_i gneE105 gneE106 gneE114 28_S_i 28_N_o gneE145 gneE146.0 gneE146.215 5_out"/>
			<route id="56_k27_7" probability="0.10" edges="56_in -gneE136 -gneE135 -gneE138 -gneE134.0 -gneE134.271 -175017439 -106505879 -212739776 -106505854 -106505987 -106505990 39_W_i_0 39_W_i 39_E_o 37_W_i 38_S_i 38_N_o 288154658#0 288154658#1 288154658#2 102409319#5 102409319#6 102409319#7 102409319#0 102409320#0 k27_out"/>
			<route id="56_k31_7" probability="0.02" edges="56_in -gneE136 -gneE135 -gneE138 -gneE134.0 -gneE134.271 -175017439 -106505879 -212739776 -106505854 -106505987 -106505990 39_W_i_0 39_W_i 39_E_o 37_W_i 38_S_i 38_N_o 288154658#0 288154658#1 288154658#2 102409319#5 102409319#6 288154653#0 288154653#1 288154653#2 -28379044 51_S_i 51_N_o 102734923#1.0 102734923#1.51 -313326261#1 -313326261#0 -37144965 32539330 k31_out"/>
			<route id="56_22_7" probability="0.20" edges="56_in -gneE136 -gneE135 -gneE138 -gneE134.0 -gneE134.271 -175017439 -106505879 -212739776 -106505854 -106505987 -106505990 39_W_i_0 39_W_i 39_E_o 37_W_i 37_E_o -102735078#1 -102735078#0 -164362504#1 -164362504#0.0 -164362504#0.8 35_W_i_0 35_W_i 35_E_o 35_E_o_2 34_W_i 34_E_o -514463212#1.16 32_W_i 32_E_o 31_W_i 31_E_o gneE82.0 gneE82.3 gneE82.28 -26298877.85.0 gneE87 gneE151 gneE152.0 gneE152.57 gneE153 gneE154.0 gneE154.47.12 gneE155 gneE156 gneE157 gneE158 gneE159 gneE160 gneE161 22_out"/>
			<route id="56_40S_7" probability="0.02" edges="56_in -gneE136 -gneE135 -gneE138 -gneE134.0 -gneE134.271 -175017439 -106505879 -212739776 -106505854 -106505987 -106505990 39_W_i_0 39_W_i 39_S_o 499396343#0 40_N_i 40_S_o 40S_out"/>
			<route id="56_40W_7" probability="0.01" edges="56_in -gneE136 -gneE135 -gneE138 -gneE134.0 -gneE134.271 -175017439 -106505879 -212739776 -106505854 -106505987 -106505990 39_W_i_0 39_W_i 39_S_o 499396343#0 40_N_i 40_W_o 106505968#0 106505968#1 106505968#2 106505968#3 106505968#4 40W_out"/>
		</routeDistribution>
		
		<routeDistribution id="56_8">
			<route id="56_59_8" probability="0.15" edges="56_in -gneE136 -gneE135 -gneE138 -gneE134.0 -gneE134.271 -175017439 30133676#0 30133676#1 -28359882 gneE170 gneE171 gneE172 gneE173.0 gneE173.97 59_out"/>
			<route id="56_75_8" probability="0.15" edges="56_in -gneE136 -gneE135 -gneE138 -gneE134.0 -gneE134.271 -175017439 -106505879 -212739776 -106505854 -106505987 -106505990 39_W_i_0 39_W_i 39_E_o 37_W_i 37_E_o -102735078#1 -102735078#0 -164362504#1 -164362504#0.0 -164362504#0.8 35_W_i_0 35_W_i 35_E_o 35_E_o_2 34_W_i 34_S_o -294997384 -294990999 gneE102 gneE175 gneE176 gneE177 75_out"/>
			<route id="56_85_8" probability="0.14" edges="56_in -gneE136 -gneE135 -gneE138 -gneE134.0 -gneE134.271 -175017439 -106505879 -212739776 -106505854 -106505987 -106505990 39_W_i_0 39_W_i 39_E_o 37_W_i 37_E_o -102735078#1 -102735078#0 -164362504#1 -164362504#0.0 -164362504#0.8 35_W_i_0 35_W_i 35_E_o 35_E_o_2 34_W_i 34_E_o -514463212#1.16 32_W_i 32_E_o 31_W_i 31_S_o gneE62 gneE63 48_N_i 48_S_o 50_S_o -129684413#0 -102735081#2 -102735081#1 -102735081#0 102734899 129684414#0 129684414#1 -102734929#3 -102734929#2 -102734929#1 85_out"/>
			<route id="56_18_8" probability="0.10" edges="56_in -gneE136 -gneE135 -gneE138 -gneE134.0 -gneE134.271 -175017439 -106505879 -212739776 -106505854 -106505987 -106505990 39_W_i_0 39_W_i 39_E_o 37_W_i 37_E_o -102735078#1 -102735078#0 -164362504#1 -164362504#0.0 -164362504#0.8 35_W_i_0 35_W_i 35_E_o 35_E_o_2 34_W_i 34_E_o -514463212#1.16 32_W_i 32_E_o 31_W_i 31_E_o gneE82.0 gneE82.3 gneE82.28 gneE83 27832981#0.162.0 29_W_i 29_S_o 46420201#1.0.23.0 46420201#1.0.23.43 19_W_i 19_E_o 19_E_o_2 -102735130#2.376.0 -102735130#2.376.11 -26277048#1 -102735069 gneE163 gneE187 gneE188 gneE192 gneE196 gneE199 gneE165.0 gneE165.116 18_out"/>
			<route id="56_5_8" probability="0.9" edges="56_in -gneE136 -gneE135 -gneE138 -gneE134.0 -gneE134.271 -175017439 -106505879 -212739776 -106505854 -106505987 -106505990 39_W_i_0 39_W_i 39_E_o 37_W_i 37_E_o -102735078#1 -102735078#0 -164362504#1 -164362504#0.0 -164362504#0.8 35_W_i_0 35_W_i 35_E_o 35_E_o_2 34_W_i 34_E_o -514463212#1.16 32_W_i 32_E_o 31_W_i 31_E_o gneE82.0 gneE82.3 gneE82.28 gneE83 27832981#0.162.0 29_W_i gneE105 gneE106 gneE114 28_S_i 28_N_o gneE145 gneE146.0 gneE146.215 5_out"/>
			<route id="56_k27_8" probability="0.13" edges="56_in -gneE136 -gneE135 -gneE138 -gneE134.0 -gneE134.271 -175017439 -106505879 -212739776 -106505854 -106505987 -106505990 39_W_i_0 39_W_i 39_E_o 37_W_i 38_S_i 38_N_o 288154658#0 288154658#1 288154658#2 102409319#5 102409319#6 102409319#7 102409319#0 102409320#0 k27_out"/>
			<route id="56_k31_8" probability="0.03" edges="56_in -gneE136 -gneE135 -gneE138 -gneE134.0 -gneE134.271 -175017439 -106505879 -212739776 -106505854 -106505987 -106505990 39_W_i_0 39_W_i 39_E_o 37_W_i 38_S_i 38_N_o 288154658#0 288154658#1 288154658#2 102409319#5 102409319#6 288154653#0 288154653#1 288154653#2 -28379044 51_S_i 51_N_o 102734923#1.0 102734923#1.51 -313326261#1 -313326261#0 -37144965 32539330 k31_out"/>
			<route id="56_22_8" probability="0.18" edges="56_in -gneE136 -gneE135 -gneE138 -gneE134.0 -gneE134.271 -175017439 -106505879 -212739776 -106505854 -106505987 -106505990 39_W_i_0 39_W_i 39_E_o 37_W_i 37_E_o -102735078#1 -102735078#0 -164362504#1 -164362504#0.0 -164362504#0.8 35_W_i_0 35_W_i 35_E_o 35_E_o_2 34_W_i 34_E_o -514463212#1.16 32_W_i 32_E_o 31_W_i 31_E_o gneE82.0 gneE82.3 gneE82.28 -26298877.85.0 gneE87 gneE151 gneE152.0 gneE152.57 gneE153 gneE154.0 gneE154.47.12 gneE155 gneE156 gneE157 gneE158 gneE159 gneE160 gneE161 22_out"/>
			<route id="56_40S_8" probability="0.02" edges="56_in -gneE136 -gneE135 -gneE138 -gneE134.0 -gneE134.271 -175017439 -106505879 -212739776 -106505854 -106505987 -106505990 39_W_i_0 39_W_i 39_S_o 499396343#0 40_N_i 40_S_o 40S_out"/>
			<route id="56_40W_8" probability="0.01" edges="56_in -gneE136 -gneE135 -gneE138 -gneE134.0 -gneE134.271 -175017439 -106505879 -212739776 -106505854 -106505987 -106505990 39_W_i_0 39_W_i 39_S_o 499396343#0 40_N_i 40_W_o 106505968#0 106505968#1 106505968#2 106505968#3 106505968#4 40W_out"/>
		</routeDistribution>
		
		<routeDistribution id="56_9">
			<route id="56_59_9" probability="0.16" edges="56_in -gneE136 -gneE135 -gneE138 -gneE134.0 -gneE134.271 -175017439 30133676#0 30133676#1 -28359882 gneE170 gneE171 gneE172 gneE173.0 gneE173.97 59_out"/>
			<route id="56_75_9" probability="0.11" edges="56_in -gneE136 -gneE135 -gneE138 -gneE134.0 -gneE134.271 -175017439 -106505879 -212739776 -106505854 -106505987 -106505990 39_W_i_0 39_W_i 39_E_o 37_W_i 37_E_o -102735078#1 -102735078#0 -164362504#1 -164362504#0.0 -164362504#0.8 35_W_i_0 35_W_i 35_E_o 35_E_o_2 34_W_i 34_S_o -294997384 -294990999 gneE102 gneE175 gneE176 gneE177 75_out"/>
			<route id="56_85_9" probability="0.19" edges="56_in -gneE136 -gneE135 -gneE138 -gneE134.0 -gneE134.271 -175017439 -106505879 -212739776 -106505854 -106505987 -106505990 39_W_i_0 39_W_i 39_E_o 37_W_i 37_E_o -102735078#1 -102735078#0 -164362504#1 -164362504#0.0 -164362504#0.8 35_W_i_0 35_W_i 35_E_o 35_E_o_2 34_W_i 34_E_o -514463212#1.16 32_W_i 32_E_o 31_W_i 31_S_o gneE62 gneE63 48_N_i 48_S_o 50_S_o -129684413#0 -102735081#2 -102735081#1 -102735081#0 102734899 129684414#0 129684414#1 -102734929#3 -102734929#2 -102734929#1 85_out"/>
			<route id="56_18_9" probability="0.08" edges="56_in -gneE136 -gneE135 -gneE138 -gneE134.0 -gneE134.271 -175017439 -106505879 -212739776 -106505854 -106505987 -106505990 39_W_i_0 39_W_i 39_E_o 37_W_i 37_E_o -102735078#1 -102735078#0 -164362504#1 -164362504#0.0 -164362504#0.8 35_W_i_0 35_W_i 35_E_o 35_E_o_2 34_W_i 34_E_o -514463212#1.16 32_W_i 32_E_o 31_W_i 31_E_o gneE82.0 gneE82.3 gneE82.28 gneE83 27832981#0.162.0 29_W_i 29_S_o 46420201#1.0.23.0 46420201#1.0.23.43 19_W_i 19_E_o 19_E_o_2 -102735130#2.376.0 -102735130#2.376.11 -26277048#1 -102735069 gneE163 gneE187 gneE188 gneE192 gneE196 gneE199 gneE165.0 gneE165.116 18_out"/>
			<route id="56_5_9" probability="0.12" edges="56_in -gneE136 -gneE135 -gneE138 -gneE134.0 -gneE134.271 -175017439 -106505879 -212739776 -106505854 -106505987 -106505990 39_W_i_0 39_W_i 39_E_o 37_W_i 37_E_o -102735078#1 -102735078#0 -164362504#1 -164362504#0.0 -164362504#0.8 35_W_i_0 35_W_i 35_E_o 35_E_o_2 34_W_i 34_E_o -514463212#1.16 32_W_i 32_E_o 31_W_i 31_E_o gneE82.0 gneE82.3 gneE82.28 gneE83 27832981#0.162.0 29_W_i gneE105 gneE106 gneE114 28_S_i 28_N_o gneE145 gneE146.0 gneE146.215 5_out"/>
			<route id="56_k27_9" probability="0.14" edges="56_in -gneE136 -gneE135 -gneE138 -gneE134.0 -gneE134.271 -175017439 -106505879 -212739776 -106505854 -106505987 -106505990 39_W_i_0 39_W_i 39_E_o 37_W_i 38_S_i 38_N_o 288154658#0 288154658#1 288154658#2 102409319#5 102409319#6 102409319#7 102409319#0 102409320#0 k27_out"/>
			<route id="56_k31_9" probability="0.03" edges="56_in -gneE136 -gneE135 -gneE138 -gneE134.0 -gneE134.271 -175017439 -106505879 -212739776 -106505854 -106505987 -106505990 39_W_i_0 39_W_i 39_E_o 37_W_i 38_S_i 38_N_o 288154658#0 288154658#1 288154658#2 102409319#5 102409319#6 288154653#0 288154653#1 288154653#2 -28379044 51_S_i 51_N_o 102734923#1.0 102734923#1.51 -313326261#1 -313326261#0 -37144965 32539330 k31_out"/>
			<route id="56_22_9" probability="0.14" edges="56_in -gneE136 -gneE135 -gneE138 -gneE134.0 -gneE134.271 -175017439 -106505879 -212739776 -106505854 -106505987 -106505990 39_W_i_0 39_W_i 39_E_o 37_W_i 37_E_o -102735078#1 -102735078#0 -164362504#1 -164362504#0.0 -164362504#0.8 35_W_i_0 35_W_i 35_E_o 35_E_o_2 34_W_i 34_E_o -514463212#1.16 32_W_i 32_E_o 31_W_i 31_E_o gneE82.0 gneE82.3 gneE82.28 -26298877.85.0 gneE87 gneE151 gneE152.0 gneE152.57 gneE153 gneE154.0 gneE154.47.12 gneE155 gneE156 gneE157 gneE158 gneE159 gneE160 gneE161 22_out"/>
			<route id="56_40S_9" probability="0.02" edges="56_in -gneE136 -gneE135 -gneE138 -gneE134.0 -gneE134.271 -175017439 -106505879 -212739776 -106505854 -106505987 -106505990 39_W_i_0 39_W_i 39_S_o 499396343#0 40_N_i 40_S_o 40S_out"/>
			<route id="56_40W_9" probability="0.01" edges="56_in -gneE136 -gneE135 -gneE138 -gneE134.0 -gneE134.271 -175017439 -106505879 -212739776 -106505854 -106505987 -106505990 39_W_i_0 39_W_i 39_S_o 499396343#0 40_N_i 40_W_o 106505968#0 106505968#1 106505968#2 106505968#3 106505968#4 40W_out"/>
		</routeDistribution>
		
		<routeDistribution id="59_6">
			<route id="59_56_6" probability="0.14" edges="59_in -gneE173.0 -gneE173.240 -gneE172 -gneE171 -gneE170 28359882 -gneE40 41_W_i_0 41_S_o gneE34 41_S_o_2 106505987 106505854 gneE42 gneE43 106505879 175017439 gneE134.0 gneE134.252 gneE138 gneE135 gneE136 56_out"/>
			<route id="59_75_6" probability="0.08" edges="59_in -gneE173.0 -gneE173.240 -gneE172 -gneE171 -gneE170 28359882 30133680 gneE41 -106505854 -106505987 -106505990 39_W_i_0 39_W_i 39_E_o 37_W_i 37_E_o -102735078#1 -102735078#0 -164362504#1 -164362504#0.0 -164362504#0.8 35_W_i_0 35_W_i 35_E_o 35_E_o_2 34_W_i 34_S_o -294997384 -294990999 gneE102 gneE175 gneE176 gneE177 75_out"/>
			<route id="59_85_6" probability="0.09" edges="59_in -gneE173.0 -gneE173.240 -gneE172 -gneE171 -gneE170 28359882 30133680 gneE41 -106505854 -106505987 -106505990 39_W_i_0 39_W_i 39_E_o 37_W_i 37_E_o -102735078#1 -102735078#0 -164362504#1 -164362504#0.0 -164362504#0.8 35_W_i_0 35_W_i 35_E_o 35_E_o_2 34_W_i 34_E_o -514463212#1.16 32_W_i 32_E_o 31_W_i 31_S_o gneE62 gneE63 48_N_i 48_S_o 50_S_o -129684413#0 -102735081#2 -102735081#1 -102735081#0 102734899 129684414#0 129684414#1 -102734929#3 -102734929#2 -102734929#1 85_out"/>
			<route id="59_18_6" probability="0.15" edges="59_in -gneE173.0 -gneE173.240 -gneE172 -gneE171 -gneE170 28359882 30133680 gneE41 -106505854 -106505987 -106505990 39_W_i_0 39_W_i 39_E_o 37_W_i 37_E_o -102735078#1 -102735078#0 -164362504#1 -164362504#0.0 -164362504#0.8 35_W_i_0 35_W_i 35_E_o 35_E_o_2 34_W_i 34_E_o -514463212#1.16 32_W_i 32_E_o 31_W_i 31_E_o gneE82.0 gneE82.3 gneE82.28 gneE83 27832981#0.162.0 29_W_i 29_S_o 46420201#1.0.23.0 46420201#1.0.23.43 19_W_i 19_E_o 19_E_o_2 -102735130#2.376.0 -102735130#2.376.11 -26277048#1 -102735069 gneE163 gneE187 gneE188 gneE192 gneE196 gneE199 gneE165.0 gneE165.116 18_out"/>
			<route id="59_5_6" probability="0.09" edges="59_in -gneE173.0 -gneE173.240 -gneE172 -gneE171 -gneE170 28359882 30133680 gneE41 -106505854 -106505987 -106505990 39_W_i_0 39_W_i 39_E_o 37_W_i 37_E_o -102735078#1 -102735078#0 -164362504#1 -164362504#0.0 -164362504#0.8 35_W_i_0 35_W_i 35_E_o 35_E_o_2 34_W_i 34_E_o -514463212#1.16 32_W_i 32_E_o 31_W_i 31_E_o gneE82.0 gneE82.3 gneE82.28 gneE83 27832981#0.162.0 29_W_i gneE105 gneE106 gneE114 28_S_i 28_N_o gneE145 gneE146.0 gneE146.215 5_out"/>
			<route id="59_k27_6" probability="0.11" edges="59_in -gneE173.0 -gneE173.240 -gneE172 -gneE171 -gneE170 28359882 -gneE40 41_W_i_0 41_W_i 41_E_o 41_E_o_2 212739762#1 212739762#2 288154655#0 288154655#1 102409319#3 102409319#4 102409319#5 102409319#6 102409319#7 102409319#0 102409320#0 k27_out"/>
			<route id="59_k31_6" probability="0.01" edges="59_in -gneE173.0 -gneE173.240 -gneE172 -gneE171 -gneE170 28359882 -gneE40 41_W_i_0 41_W_i 41_E_o 41_E_o_2 212739762#1 212739762#2 288154655#0 288154655#1 102409319#3 102409319#4 102409319#5 102409319#6 288154653#0 288154653#1 288154653#2 -28379044 51_S_i 51_N_o 102734923#1.0 102734923#1.51 -313326261#1 -313326261#0 -37144965 32539330 k31_out"/>
			<route id="59_22_6" probability="0.33" edges="59_in -gneE173.0 -gneE173.240 -gneE172 -gneE171 -gneE170 28359882 30133680 gneE41 -106505854 -106505987 -106505990 39_W_i_0 39_W_i 39_E_o 37_W_i 37_E_o -102735078#1 -102735078#0 -164362504#1 -164362504#0.0 -164362504#0.8 35_W_i_0 35_W_i 35_E_o 35_E_o_2 34_W_i 34_E_o -514463212#1.16 32_W_i 32_E_o 31_W_i 31_E_o gneE82.0 gneE82.3 gneE82.28 -26298877.85.0 gneE87 gneE151 gneE152.0 gneE152.57 gneE153 gneE154.0 gneE154.47.12 gneE155 gneE156 gneE157 gneE158 gneE159 gneE160 gneE161 22_out"/>
		</routeDistribution>
		
		<routeDistribution id="59_7">
			<route id="59_56_7" probability="0.12" edges="59_in -gneE173.0 -gneE173.240 -gneE172 -gneE171 -gneE170 28359882 -gneE40 41_W_i_0 41_S_o gneE34 41_S_o_2 106505987 106505854 gneE42 gneE43 106505879 175017439 gneE134.0 gneE134.252 gneE138 gneE135 gneE136 56_out"/>
			<route id="59_75_7" probability="0.15" edges="59_in -gneE173.0 -gneE173.240 -gneE172 -gneE171 -gneE170 28359882 30133680 gneE41 -106505854 -106505987 -106505990 39_W_i_0 39_W_i 39_E_o 37_W_i 37_E_o -102735078#1 -102735078#0 -164362504#1 -164362504#0.0 -164362504#0.8 35_W_i_0 35_W_i 35_E_o 35_E_o_2 34_W_i 34_S_o -294997384 -294990999 gneE102 gneE175 gneE176 gneE177 75_out"/>
			<route id="59_85_7" probability="0.11" edges="59_in -gneE173.0 -gneE173.240 -gneE172 -gneE171 -gneE170 28359882 30133680 gneE41 -106505854 -106505987 -106505990 39_W_i_0 39_W_i 39_E_o 37_W_i 37_E_o -102735078#1 -102735078#0 -164362504#1 -164362504#0.0 -164362504#0.8 35_W_i_0 35_W_i 35_E_o 35_E_o_2 34_W_i 34_E_o -514463212#1.16 32_W_i 32_E_o 31_W_i 31_S_o gneE62 gneE63 48_N_i 48_S_o 50_S_o -129684413#0 -102735081#2 -102735081#1 -102735081#0 102734899 129684414#0 129684414#1 -102734929#3 -102734929#2 -102734929#1 85_out"/>
			<route id="59_18_7" probability="0.14" edges="59_in -gneE173.0 -gneE173.240 -gneE172 -gneE171 -gneE170 28359882 30133680 gneE41 -106505854 -106505987 -106505990 39_W_i_0 39_W_i 39_E_o 37_W_i 37_E_o -102735078#1 -102735078#0 -164362504#1 -164362504#0.0 -164362504#0.8 35_W_i_0 35_W_i 35_E_o 35_E_o_2 34_W_i 34_E_o -514463212#1.16 32_W_i 32_E_o 31_W_i 31_E_o gneE82.0 gneE82.3 gneE82.28 gneE83 27832981#0.162.0 29_W_i 29_S_o 46420201#1.0.23.0 46420201#1.0.23.43 19_W_i 19_E_o 19_E_o_2 -102735130#2.376.0 -102735130#2.376.11 -26277048#1 -102735069 gneE163 gneE187 gneE188 gneE192 gneE196 gneE199 gneE165.0 gneE165.116 18_out"/>
			<route id="59_5_7" probability="0.08" edges="59_in -gneE173.0 -gneE173.240 -gneE172 -gneE171 -gneE170 28359882 30133680 gneE41 -106505854 -106505987 -106505990 39_W_i_0 39_W_i 39_E_o 37_W_i 37_E_o -102735078#1 -102735078#0 -164362504#1 -164362504#0.0 -164362504#0.8 35_W_i_0 35_W_i 35_E_o 35_E_o_2 34_W_i 34_E_o -514463212#1.16 32_W_i 32_E_o 31_W_i 31_E_o gneE82.0 gneE82.3 gneE82.28 gneE83 27832981#0.162.0 29_W_i gneE105 gneE106 gneE114 28_S_i 28_N_o gneE145 gneE146.0 gneE146.215 5_out"/>
			<route id="59_k27_7" probability="0.14" edges="59_in -gneE173.0 -gneE173.240 -gneE172 -gneE171 -gneE170 28359882 -gneE40 41_W_i_0 41_W_i 41_E_o 41_E_o_2 212739762#1 212739762#2 288154655#0 288154655#1 102409319#3 102409319#4 102409319#5 102409319#6 102409319#7 102409319#0 102409320#0 k27_out"/>
			<route id="59_k31_7" probability="0.02" edges="59_in -gneE173.0 -gneE173.240 -gneE172 -gneE171 -gneE170 28359882 -gneE40 41_W_i_0 41_W_i 41_E_o 41_E_o_2 212739762#1 212739762#2 288154655#0 288154655#1 102409319#3 102409319#4 102409319#5 102409319#6 288154653#0 288154653#1 288154653#2 -28379044 51_S_i 51_N_o 102734923#1.0 102734923#1.51 -313326261#1 -313326261#0 -37144965 32539330 k31_out"/>
			<route id="59_22_7" probability="0.24" edges="59_in -gneE173.0 -gneE173.240 -gneE172 -gneE171 -gneE170 28359882 30133680 gneE41 -106505854 -106505987 -106505990 39_W_i_0 39_W_i 39_E_o 37_W_i 37_E_o -102735078#1 -102735078#0 -164362504#1 -164362504#0.0 -164362504#0.8 35_W_i_0 35_W_i 35_E_o 35_E_o_2 34_W_i 34_E_o -514463212#1.16 32_W_i 32_E_o 31_W_i 31_E_o gneE82.0 gneE82.3 gneE82.28 -26298877.85.0 gneE87 gneE151 gneE152.0 gneE152.57 gneE153 gneE154.0 gneE154.47.12 gneE155 gneE156 gneE157 gneE158 gneE159 gneE160 gneE161 22_out"/>
		</routeDistribution>
		
		<routeDistribution id="59_8">
			<route id="59_56_8" probability="0.20" edges="59_in -gneE173.0 -gneE173.240 -gneE172 -gneE171 -gneE170 28359882 -gneE40 41_W_i_0 41_S_o gneE34 41_S_o_2 106505987 106505854 gneE42 gneE43 106505879 175017439 gneE134.0 gneE134.252 gneE138 gneE135 gneE136 56_out"/>
			<route id="59_75_8" probability="0.14" edges="59_in -gneE173.0 -gneE173.240 -gneE172 -gneE171 -gneE170 28359882 30133680 gneE41 -106505854 -106505987 -106505990 39_W_i_0 39_W_i 39_E_o 37_W_i 37_E_o -102735078#1 -102735078#0 -164362504#1 -164362504#0.0 -164362504#0.8 35_W_i_0 35_W_i 35_E_o 35_E_o_2 34_W_i 34_S_o -294997384 -294990999 gneE102 gneE175 gneE176 gneE177 75_out"/>
			<route id="59_85_8" probability="0.13" edges="59_in -gneE173.0 -gneE173.240 -gneE172 -gneE171 -gneE170 28359882 30133680 gneE41 -106505854 -106505987 -106505990 39_W_i_0 39_W_i 39_E_o 37_W_i 37_E_o -102735078#1 -102735078#0 -164362504#1 -164362504#0.0 -164362504#0.8 35_W_i_0 35_W_i 35_E_o 35_E_o_2 34_W_i 34_E_o -514463212#1.16 32_W_i 32_E_o 31_W_i 31_S_o gneE62 gneE63 48_N_i 48_S_o 50_S_o -129684413#0 -102735081#2 -102735081#1 -102735081#0 102734899 129684414#0 129684414#1 -102734929#3 -102734929#2 -102734929#1 85_out"/>
			<route id="59_18_8" probability="0.09" edges="59_in -gneE173.0 -gneE173.240 -gneE172 -gneE171 -gneE170 28359882 30133680 gneE41 -106505854 -106505987 -106505990 39_W_i_0 39_W_i 39_E_o 37_W_i 37_E_o -102735078#1 -102735078#0 -164362504#1 -164362504#0.0 -164362504#0.8 35_W_i_0 35_W_i 35_E_o 35_E_o_2 34_W_i 34_E_o -514463212#1.16 32_W_i 32_E_o 31_W_i 31_E_o gneE82.0 gneE82.3 gneE82.28 gneE83 27832981#0.162.0 29_W_i 29_S_o 46420201#1.0.23.0 46420201#1.0.23.43 19_W_i 19_E_o 19_E_o_2 -102735130#2.376.0 -102735130#2.376.11 -26277048#1 -102735069 gneE163 gneE187 gneE188 gneE192 gneE196 gneE199 gneE165.0 gneE165.116 18_out"/>
			<route id="59_5_8" probability="0.09" edges="59_in -gneE173.0 -gneE173.240 -gneE172 -gneE171 -gneE170 28359882 30133680 gneE41 -106505854 -106505987 -106505990 39_W_i_0 39_W_i 39_E_o 37_W_i 37_E_o -102735078#1 -102735078#0 -164362504#1 -164362504#0.0 -164362504#0.8 35_W_i_0 35_W_i 35_E_o 35_E_o_2 34_W_i 34_E_o -514463212#1.16 32_W_i 32_E_o 31_W_i 31_E_o gneE82.0 gneE82.3 gneE82.28 gneE83 27832981#0.162.0 29_W_i gneE105 gneE106 gneE114 28_S_i 28_N_o gneE145 gneE146.0 gneE146.215 5_out"/>
			<route id="59_k27_8" probability="0.16" edges="59_in -gneE173.0 -gneE173.240 -gneE172 -gneE171 -gneE170 28359882 -gneE40 41_W_i_0 41_W_i 41_E_o 41_E_o_2 212739762#1 212739762#2 288154655#0 288154655#1 102409319#3 102409319#4 102409319#5 102409319#6 102409319#7 102409319#0 102409320#0 k27_out"/>
			<route id="59_k31_8" probability="0.02" edges="59_in -gneE173.0 -gneE173.240 -gneE172 -gneE171 -gneE170 28359882 -gneE40 41_W_i_0 41_W_i 41_E_o 41_E_o_2 212739762#1 212739762#2 288154655#0 288154655#1 102409319#3 102409319#4 102409319#5 102409319#6 288154653#0 288154653#1 288154653#2 -28379044 51_S_i 51_N_o 102734923#1.0 102734923#1.51 -313326261#1 -313326261#0 -37144965 32539330 k31_out"/>
			<route id="59_22_8" probability="0.18" edges="59_in -gneE173.0 -gneE173.240 -gneE172 -gneE171 -gneE170 28359882 30133680 gneE41 -106505854 -106505987 -106505990 39_W_i_0 39_W_i 39_E_o 37_W_i 37_E_o -102735078#1 -102735078#0 -164362504#1 -164362504#0.0 -164362504#0.8 35_W_i_0 35_W_i 35_E_o 35_E_o_2 34_W_i 34_E_o -514463212#1.16 32_W_i 32_E_o 31_W_i 31_E_o gneE82.0 gneE82.3 gneE82.28 -26298877.85.0 gneE87 gneE151 gneE152.0 gneE152.57 gneE153 gneE154.0 gneE154.47.12 gneE155 gneE156 gneE157 gneE158 gneE159 gneE160 gneE161 22_out"/>
		</routeDistribution>
		
		<routeDistribution id="59_9">
			<route id="59_56_9" probability="0.18" edges="59_in -gneE173.0 -gneE173.240 -gneE172 -gneE171 -gneE170 28359882 -gneE40 41_W_i_0 41_S_o gneE34 41_S_o_2 106505987 106505854 gneE42 gneE43 106505879 175017439 gneE134.0 gneE134.252 gneE138 gneE135 gneE136 56_out"/>
			<route id="59_75_9" probability="0.13" edges="59_in -gneE173.0 -gneE173.240 -gneE172 -gneE171 -gneE170 28359882 30133680 gneE41 -106505854 -106505987 -106505990 39_W_i_0 39_W_i 39_E_o 37_W_i 37_E_o -102735078#1 -102735078#0 -164362504#1 -164362504#0.0 -164362504#0.8 35_W_i_0 35_W_i 35_E_o 35_E_o_2 34_W_i 34_S_o -294997384 -294990999 gneE102 gneE175 gneE176 gneE177 75_out"/>
			<route id="59_85_9" probability="0.18" edges="59_in -gneE173.0 -gneE173.240 -gneE172 -gneE171 -gneE170 28359882 30133680 gneE41 -106505854 -106505987 -106505990 39_W_i_0 39_W_i 39_E_o 37_W_i 37_E_o -102735078#1 -102735078#0 -164362504#1 -164362504#0.0 -164362504#0.8 35_W_i_0 35_W_i 35_E_o 35_E_o_2 34_W_i 34_E_o -514463212#1.16 32_W_i 32_E_o 31_W_i 31_S_o gneE62 gneE63 48_N_i 48_S_o 50_S_o -129684413#0 -102735081#2 -102735081#1 -102735081#0 102734899 129684414#0 129684414#1 -102734929#3 -102734929#2 -102734929#1 85_out"/>