<?xml version="1.0" encoding="UTF-8"?>

<!-- generated on 3/12/2018 3:23:08 PM by Netedit Version 0.31.0
<?xml version="1.0" encoding="UTF-8"?>

<configuration xmlns:xsi="http://www.w3.org/2001/XMLSchema-instance" xsi:noNamespaceSchemaLocation="http://sumo.dlr.de/xsd/netconvertConfiguration.xsd">

    <input>
        <sumo-net-file value="C:\Users\B.Maximcsuk\Sumo\Sumo%201.2.5\s_gyor.net.xml"/>
    </input>

    <output>
        <output-file value="C:\Users\B.Maximcsuk\Sumo\Sumo%201.2.5\s_gyor.net.xml"/>
        <output.street-names value="true"/>
    </output>

    <processing>
        <no-turnarounds value="true"/>
        <offset.disable-normalization value="true"/>
        <lefthand value="false"/>
        <junctions.corner-detail value="5"/>
        <rectangular-lane-cut value="false"/>
        <walkingareas value="false"/>
    </processing>

</configuration>
-->

<net version="0.27" junctionCornerDetail="5" xmlns:xsi="http://www.w3.org/2001/XMLSchema-instance" xsi:noNamespaceSchemaLocation="http://sumo.dlr.de/xsd/net_file.xsd">

    <location netOffset="-696346.40,-5283444.33" convBoundary="-1555.18,-799.36,4038.28,3747.08" origBoundary="16.951056,47.241814,17.661549,47.693048" projParameter="+proj=utm +zone=33 +ellps=WGS84 +datum=WGS84 +units=m +no_defs"/>

    <type id="highway.bridleway" priority="1" numLanes="1" speed="2.78" allow="pedestrian" oneway="1" width="2.00"/>
    <type id="highway.bus_guideway" priority="1" numLanes="1" speed="8.33" allow="bus" oneway="1"/>
    <type id="highway.cycleway" priority="1" numLanes="1" speed="5.56" allow="bicycle" oneway="0" width="1.00"/>
    <type id="highway.footway" priority="1" numLanes="1" speed="2.78" allow="pedestrian" oneway="1" width="2.00"/>
    <type id="highway.ford" priority="1" numLanes="1" speed="2.78" allow="army" oneway="0"/>
    <type id="highway.living_street" priority="3" numLanes="1" speed="2.78" disallow="tram rail_urban rail rail_electric ship" oneway="0"/>
    <type id="highway.motorway" priority="13" numLanes="2" speed="44.44" allow="private emergency authority army vip passenger hov taxi bus coach delivery truck trailer motorcycle evehicle custom1 custom2" oneway="1"/>
    <type id="highway.motorway_link" priority="12" numLanes="1" speed="22.22" allow="private emergency authority army vip passenger hov taxi bus coach delivery truck trailer motorcycle evehicle custom1 custom2" oneway="1"/>
    <type id="highway.path" priority="1" numLanes="1" speed="2.78" allow="bicycle pedestrian" oneway="1" width="2.00"/>
    <type id="highway.pedestrian" priority="1" numLanes="1" speed="2.78" allow="pedestrian" oneway="1" width="2.00"/>
    <type id="highway.primary" priority="9" numLanes="2" speed="27.78" disallow="tram rail_urban rail rail_electric ship" oneway="0"/>
    <type id="highway.primary_link" priority="8" numLanes="1" speed="22.22" disallow="tram rail_urban rail rail_electric ship" oneway="0"/>
    <type id="highway.raceway" priority="14" numLanes="2" speed="83.33" allow="vip" oneway="0"/>
    <type id="highway.residential" priority="4" numLanes="1" speed="13.89" disallow="tram rail_urban rail rail_electric ship" oneway="0"/>
    <type id="highway.secondary" priority="7" numLanes="2" speed="27.78" disallow="tram rail_urban rail rail_electric ship" oneway="0"/>
    <type id="highway.secondary_link" priority="6" numLanes="1" speed="22.22" disallow="tram rail_urban rail rail_electric ship" oneway="0"/>
    <type id="highway.service" priority="2" numLanes="1" speed="5.56" allow="delivery bicycle pedestrian" oneway="0"/>
    <type id="highway.services" priority="1" numLanes="1" speed="8.33" disallow="tram rail_urban rail rail_electric ship" oneway="0"/>
    <type id="highway.stairs" priority="1" numLanes="1" speed="1.39" allow="pedestrian" oneway="1" width="2.00"/>
    <type id="highway.step" priority="1" numLanes="1" speed="1.39" allow="pedestrian" oneway="1" width="2.00"/>
    <type id="highway.steps" priority="1" numLanes="1" speed="1.39" allow="pedestrian" oneway="1" width="2.00"/>
    <type id="highway.tertiary" priority="6" numLanes="1" speed="22.22" disallow="tram rail_urban rail rail_electric ship" oneway="0"/>
    <type id="highway.tertiary_link" priority="5" numLanes="1" speed="22.22" disallow="tram rail_urban rail rail_electric ship" oneway="0"/>
    <type id="highway.track" priority="1" numLanes="1" speed="5.56" disallow="tram rail_urban rail rail_electric ship" oneway="0"/>
    <type id="highway.trunk" priority="11" numLanes="2" speed="27.78" disallow="tram rail_urban rail rail_electric bicycle pedestrian ship" oneway="0"/>
    <type id="highway.trunk_link" priority="10" numLanes="1" speed="22.22" disallow="tram rail_urban rail rail_electric bicycle pedestrian ship" oneway="0"/>
    <type id="highway.unclassified" priority="5" numLanes="1" speed="13.89" disallow="tram rail_urban rail rail_electric ship" oneway="0"/>
    <type id="highway.unsurfaced" priority="1" numLanes="1" speed="8.33" disallow="tram rail_urban rail rail_electric ship" oneway="0"/>
    <type id="railway.light_rail" priority="15" numLanes="1" speed="27.78" allow="rail_urban" oneway="1"/>
    <type id="railway.preserved" priority="15" numLanes="1" speed="27.78" allow="rail" oneway="1"/>
    <type id="railway.rail" priority="15" numLanes="1" speed="83.33" allow="rail rail_electric" oneway="1"/>
    <type id="railway.subway" priority="15" numLanes="1" speed="27.78" allow="rail_urban" oneway="1"/>
    <type id="railway.tram" priority="15" numLanes="1" speed="13.89" allow="tram" oneway="1"/>

    <edge id=":1140717101_0" function="internal">
        <lane id=":1140717101_0_0" index="0" disallow="tram rail_urban rail rail_electric ship" speed="13.89" length="0.31" shape="1392.00,1196.63 1391.73,1196.48"/>
    </edge>
    <edge id=":1140717101_1" function="internal">
        <lane id=":1140717101_1_0" index="0" disallow="tram rail_urban rail rail_electric ship" speed="13.89" length="0.29" shape="1393.37,1193.61 1393.62,1193.76"/>
    </edge>
    <edge id=":1140717107_0" function="internal">
        <lane id=":1140717107_0_0" index="0" disallow="tram rail_urban rail rail_electric ship" speed="13.89" length="2.47" shape="1347.92,1452.68 1347.73,1453.33 1347.78,1453.89 1348.08,1454.37 1348.62,1454.76"/>
    </edge>
    <edge id=":1140752465_0" function="internal">
        <lane id=":1140752465_0_0" index="0" disallow="tram rail_urban rail rail_electric ship" speed="11.11" length="5.18" shape="1619.39,1767.35 1620.74,1767.89 1621.88,1767.82 1622.81,1767.16 1623.52,1765.90"/>
    </edge>
    <edge id=":1140752465_1" function="internal">
        <lane id=":1140752465_1_0" index="0" disallow="tram rail_urban rail rail_electric ship" speed="13.89" length="6.64" shape="1619.39,1767.35 1625.16,1770.65"/>
    </edge>
    <edge id=":1140752465_2" function="internal">
        <lane id=":1140752465_2_0" index="0" disallow="tram rail_urban rail rail_electric ship" speed="8.33" length="6.64" shape="1621.01,1772.05 1623.52,1765.90"/>
    </edge>
    <edge id=":1140752465_3" function="internal">
        <lane id=":1140752465_3_0" index="0" disallow="tram rail_urban rail rail_electric ship" speed="11.11" length="5.14" shape="1621.01,1772.05 1621.75,1770.82 1622.69,1770.18 1623.83,1770.12 1625.16,1770.65"/>
    </edge>
    <edge id=":1140866444_0" function="internal">
        <lane id=":1140866444_0_0" index="0" disallow="tram rail_urban rail rail_electric ship" speed="13.89" length="0.10" shape="1500.73,1472.59 1500.76,1472.51"/>
    </edge>
    <edge id=":1140866444_1" function="internal">
        <lane id=":1140866444_1_0" index="0" disallow="tram rail_urban rail rail_electric ship" speed="13.89" length="0.10" shape="1497.70,1471.27 1497.73,1471.19"/>
    </edge>
    <edge id=":1140866483_0" function="internal">
        <lane id=":1140866483_0_0" index="0" disallow="tram rail_urban rail rail_electric ship" speed="8.33" length="6.22" shape="1531.92,1631.94 1526.46,1628.97"/>
    </edge>
    <edge id=":1140866483_1" function="internal">
        <lane id=":1140866483_1_0" index="0" disallow="tram rail_urban rail rail_electric ship" speed="11.11" length="5.05" shape="1531.92,1631.94 1530.83,1631.13 1530.25,1630.15 1530.19,1629.00 1530.65,1627.68"/>
    </edge>
    <edge id=":1140866550_0" function="internal">
        <lane id=":1140866550_0_0" index="0" disallow="tram rail_urban rail rail_electric ship" speed="13.89" length="6.26" shape="1568.82,1562.60 1563.52,1559.27"/>
    </edge>
    <edge id=":1140866550_1" function="internal">
        <lane id=":1140866550_1_0" index="0" disallow="tram rail_urban rail rail_electric ship" speed="13.89" length="2.96" shape="1568.82,1562.60 1567.89,1561.54 1567.70,1560.00"/>
    </edge>
    <edge id=":1140866550_7" function="internal">
        <lane id=":1140866550_7_0" index="0" speed="13.89" length="4.93" shape="1567.70,1560.00 1568.25,1557.97 1569.53,1555.45"/>
    </edge>
    <edge id=":1140866550_2" function="internal">
        <lane id=":1140866550_2_0" index="0" disallow="tram rail_urban rail rail_electric ship" speed="13.89" length="5.03" shape="1565.27,1556.48 1566.53,1557.04 1567.66,1557.05 1568.66,1556.52 1569.53,1555.45"/>
    </edge>
    <edge id=":1140866550_3" function="internal">
        <lane id=":1140866550_3_0" index="0" disallow="tram rail_urban rail rail_electric ship" speed="13.89" length="6.26" shape="1565.27,1556.48 1570.57,1559.81"/>
    </edge>
    <edge id=":1140866550_4" function="internal">
        <lane id=":1140866550_4_0" index="0" disallow="tram rail_urban rail rail_electric ship" speed="13.89" length="5.05" shape="1564.53,1563.58 1565.09,1562.33 1565.11,1561.19 1564.58,1560.17 1563.52,1559.27"/>
    </edge>
    <edge id=":1140866550_5" function="internal">
        <lane id=":1140866550_5_0" index="0" disallow="tram rail_urban rail rail_electric ship" speed="13.89" length="9.54" shape="1564.53,1563.58 1569.53,1555.45"/>
    </edge>
    <edge id=":1140866550_6" function="internal">
        <lane id=":1140866550_6_0" index="0" disallow="tram rail_urban rail rail_electric ship" speed="13.89" length="7.85" shape="1564.53,1563.58 1566.20,1561.31 1567.76,1559.93 1569.22,1559.43 1570.57,1559.81"/>
    </edge>
    <edge id=":1140866616_0" function="internal">
        <lane id=":1140866616_0_0" index="0" disallow="tram rail_urban rail rail_electric ship" speed="13.89" length="4.82" shape="1726.82,1282.53 1728.16,1281.88 1729.08,1281.95 1729.58,1282.72 1729.66,1284.21"/>
    </edge>
    <edge id=":1140866677_0" function="internal">
        <lane id=":1140866677_0_0" index="0" disallow="tram rail_urban rail rail_electric ship" speed="13.89" length="0.29" shape="1591.00,1519.50 1591.14,1519.26"/>
    </edge>
    <edge id=":1140866679_0" function="internal">
        <lane id=":1140866679_0_0" index="0" disallow="tram rail_urban rail rail_electric ship" speed="13.89" length="6.25" shape="1635.15,1449.00 1629.69,1445.95"/>
    </edge>
    <edge id=":1140866679_1" function="internal">
        <lane id=":1140866679_1_0" index="0" disallow="tram rail_urban rail rail_electric ship" speed="13.89" length="5.01" shape="1635.15,1449.00 1634.06,1448.16 1633.51,1447.17 1633.49,1446.04 1634.00,1444.77"/>
    </edge>
    <edge id=":1140866679_2" function="internal">
        <lane id=":1140866679_2_0" index="0" disallow="tram rail_urban rail rail_electric ship" speed="13.89" length="5.02" shape="1630.88,1450.18 1631.39,1448.89 1631.36,1447.76 1630.80,1446.78 1629.69,1445.95"/>
    </edge>
    <edge id=":1140866679_3" function="internal">
        <lane id=":1140866679_3_0" index="0" disallow="tram rail_urban rail rail_electric ship" speed="13.89" length="6.25" shape="1630.88,1450.18 1634.00,1444.77"/>
    </edge>
    <edge id=":1182613046_0" function="internal">
        <lane id=":1182613046_0_0" index="0" disallow="tram rail_urban rail rail_electric ship" speed="13.89" length="2.74" shape="2143.56,1643.87 2146.08,1643.96"/>
        <lane id=":1182613046_0_1" index="1" disallow="tram rail_urban rail rail_electric ship" speed="13.89" length="2.74" shape="2143.56,1643.87 2143.99,1646.51"/>
        <lane id=":1182613046_0_2" index="2" disallow="tram rail_urban rail rail_electric ship" speed="13.89" length="2.74" shape="2141.17,1646.14 2141.90,1649.07"/>
    </edge>
    <edge id=":1182613054_0" function="internal">
        <lane id=":1182613054_0_0" index="0" disallow="tram rail_urban rail rail_electric ship" speed="13.89" length="6.20" shape="1832.57,1884.92 1829.53,1890.33"/>
    </edge>
    <edge id=":1182613054_1" function="internal">
        <lane id=":1182613054_1_0" index="0" disallow="tram rail_urban rail rail_electric ship" speed="13.89" length="5.01" shape="1825.46,1884.48 1826.74,1884.98 1827.87,1884.95 1828.85,1884.39 1829.69,1883.31"/>
    </edge>
    <edge id=":1182613054_2" function="internal">
        <lane id=":1182613054_2_0" index="0" disallow="tram rail_urban rail rail_electric ship" speed="13.89" length="7.85" shape="1825.46,1884.48 1827.81,1886.03 1829.27,1887.52 1829.84,1888.96 1829.53,1890.33"/>
    </edge>
    <edge id=":1182613054_3" function="internal">
        <lane id=":1182613054_3_0" index="0" disallow="tram rail_urban rail rail_electric ship" speed="13.89" length="6.20" shape="1826.65,1888.71 1829.69,1883.31"/>
    </edge>
    <edge id=":1182626900_0" function="internal">
        <lane id=":1182626900_0_0" index="0" disallow="tram rail_urban rail rail_electric ship" speed="22.22" length="4.86" shape="870.59,1038.39 869.17,1038.41 867.99,1038.73 867.07,1039.33 866.39,1040.21"/>
    </edge>
    <edge id=":1182626900_1" function="internal">
        <lane id=":1182626900_1_0" index="0" disallow="tram rail_urban rail rail_electric ship" speed="22.22" length="9.10" shape="870.59,1038.39 868.35,1037.98 866.34,1037.09 864.56,1035.74 863.01,1033.92"/>
    </edge>
    <edge id=":1182626900_2" function="internal">
        <lane id=":1182626900_2_0" index="0" disallow="tram rail_urban rail rail_electric ship" speed="22.22" length="5.02" shape="863.48,1038.64 863.92,1037.49 863.98,1036.32 863.68,1035.13 863.01,1033.92"/>
    </edge>
    <edge id=":1182626912_0" function="internal">
        <lane id=":1182626912_0_0" index="0" disallow="tram rail_urban rail rail_electric ship" speed="18.06" length="7.31" shape="884.17,1018.00 883.80,1020.11 883.84,1021.61 883.91,1023.12 883.60,1025.25"/>
    </edge>
    <edge id=":1182626912_1" function="internal">
        <lane id=":1182626912_1_0" index="0" disallow="tram rail_urban rail rail_electric ship" speed="22.22" length="7.96" shape="879.67,1018.83 881.66,1020.47 882.98,1022.09 883.63,1023.68 883.60,1025.25"/>
    </edge>
    <edge id=":1182626924_0" function="internal">
        <lane id=":1182626924_0_0" index="0" disallow="tram rail_urban rail rail_electric ship" speed="22.22" length="8.86" shape="860.85,1027.96 860.71,1025.34 860.50,1023.55 860.03,1021.81 859.14,1019.34"/>
    </edge>
    <edge id=":1182626924_1" function="internal">
        <lane id=":1182626924_1_0" index="0" disallow="tram rail_urban rail rail_electric ship" speed="22.22" length="9.05" shape="860.85,1027.96 860.94,1025.49 861.46,1023.29 862.40,1021.35 863.76,1019.68"/>
    </edge>
    <edge id=":1182626946_0" function="internal">
        <lane id=":1182626946_0_0" index="0" disallow="tram rail_urban rail rail_electric ship" speed="22.22" length="6.59" shape="867.10,1013.03 868.66,1014.23 869.74,1015.13 870.92,1015.72 872.79,1016.00"/>
    </edge>
    <edge id=":1182626946_1" function="internal">
        <lane id=":1182626946_1_0" index="0" disallow="tram rail_urban rail rail_electric ship" speed="22.22" length="6.65" shape="866.46,1017.52 868.21,1016.62 869.49,1016.13 870.84,1015.96 872.79,1016.00"/>
    </edge>
    <edge id=":1182772207_0" function="internal">
        <lane id=":1182772207_0_0" index="0" disallow="tram rail_urban rail rail_electric ship" speed="13.89" length="0.27" shape="1561.50,1568.38 1561.64,1568.14"/>
    </edge>
    <edge id=":1182772230_0" function="internal">
        <lane id=":1182772230_0_0" index="0" disallow="tram rail_urban rail rail_electric ship" speed="13.89" length="4.96" shape="1470.29,1520.16 1471.58,1520.70 1472.80,1520.90 1473.94,1520.76 1475.00,1520.27"/>
    </edge>
    <edge id=":1182772230_1" function="internal">
        <lane id=":1182772230_1_0" index="0" disallow="tram rail_urban rail rail_electric ship" speed="13.89" length="5.38" shape="1471.65,1524.32 1472.34,1522.89 1472.92,1521.94 1473.71,1521.17 1475.00,1520.27"/>
    </edge>
    <edge id=":1182772245_0" function="internal">
        <lane id=":1182772245_0_0" index="0" disallow="tram rail_urban rail rail_electric ship" speed="13.89" length="0.10" shape="1783.54,1533.14 1783.54,1533.14"/>
    </edge>
    <edge id=":1186526409_0" function="internal">
        <lane id=":1186526409_0_0" index="0" disallow="tram rail_urban rail rail_electric ship" speed="13.89" length="2.45" shape="1070.14,1430.70 1069.67,1431.26 1069.30,1431.60 1068.86,1431.85 1068.19,1432.13"/>
    </edge>
    <edge id=":1186526409_1" function="internal">
        <lane id=":1186526409_1_0" index="0" disallow="tram rail_urban rail rail_electric ship" speed="13.89" length="0.80" shape="1066.96,1429.07 1067.18,1428.98 1067.32,1428.89 1067.44,1428.78 1067.59,1428.60"/>
    </edge>
    <edge id=":1186526720_0" function="internal">
        <lane id=":1186526720_0_0" index="0" disallow="tram rail_urban rail rail_electric ship" speed="20.84" length="5.63" shape="2174.79,623.74 2176.30,624.47 2177.37,624.95 2178.49,625.18 2180.13,625.16"/>
    </edge>
    <edge id=":1186526720_1" function="internal">
        <lane id=":1186526720_1_0" index="0" disallow="tram rail_urban rail rail_electric ship" speed="27.78" length="5.14" shape="2174.84,628.19 2176.30,627.03 2177.29,626.12 2178.38,625.48 2180.13,625.16"/>
        <lane id=":1186526720_1_1" index="1" disallow="tram rail_urban rail rail_electric ship" speed="27.78" length="5.14" shape="2176.87,630.30 2177.96,629.90 2178.60,629.31 2179.25,628.76 2180.35,628.46"/>
    </edge>
    <edge id=":1225262609_0" function="internal">
        <lane id=":1225262609_0_0" index="0" disallow="tram rail_urban rail rail_electric ship" speed="13.89" length="1.17" shape="1349.81,915.27 1349.47,915.18 1349.25,915.10 1349.03,915.00 1348.72,914.84"/>
    </edge>
    <edge id=":1225262609_1" function="internal">
        <lane id=":1225262609_1_0" index="0" disallow="tram rail_urban rail rail_electric ship" speed="13.89" length="0.38" shape="1350.27,911.93 1350.37,911.98 1350.44,912.01 1350.52,912.04 1350.63,912.07"/>
    </edge>
    <edge id=":1225262708_0" function="internal">
        <lane id=":1225262708_0_0" index="0" disallow="tram rail_urban rail rail_electric ship" speed="16.67" length="7.83" shape="939.31,829.06 932.52,825.16"/>
        <lane id=":1225262708_0_1" index="1" disallow="tram rail_urban rail rail_electric ship" speed="16.67" length="7.83" shape="940.95,826.20 934.16,822.30"/>
    </edge>
    <edge id=":1225262708_2" function="internal">
        <lane id=":1225262708_2_0" index="0" disallow="tram rail_urban rail rail_electric ship" speed="15.28" length="7.75" shape="940.58,814.01 940.94,816.12 941.67,817.91 942.77,819.36 944.24,820.48"/>
    </edge>
    <edge id=":1225262708_3" function="internal">
        <lane id=":1225262708_3_0" index="0" disallow="tram rail_urban rail rail_electric ship" speed="16.67" length="7.83" shape="937.45,816.58 944.24,820.48"/>
        <lane id=":1225262708_3_1" index="1" disallow="tram rail_urban rail rail_electric ship" speed="16.67" length="7.83" shape="935.80,819.44 942.60,823.34"/>
    </edge>
    <edge id=":1225262709_0" function="internal">
        <lane id=":1225262709_0_0" index="0" disallow="tram rail_urban rail rail_electric ship" speed="13.89" length="1.21" shape="1297.14,887.43 1296.82,887.26 1296.62,887.13 1296.42,886.97 1296.16,886.73"/>
    </edge>
    <edge id=":1225262709_1" function="internal">
        <lane id=":1225262709_1_0" index="0" disallow="tram rail_urban rail rail_electric ship" speed="13.89" length="0.40" shape="1298.39,884.30 1298.48,884.38 1298.54,884.43 1298.61,884.47 1298.71,884.53"/>
    </edge>
    <edge id=":1225262867_0" function="internal">
        <lane id=":1225262867_0_0" index="0" disallow="tram rail_urban rail rail_electric ship" speed="13.89" length="5.96" shape="1532.09,1001.43 1530.79,1001.28 1529.57,1001.68 1528.42,1002.65 1527.35,1004.18"/>
    </edge>
    <edge id=":1225262867_1" function="internal">
        <lane id=":1225262867_1_0" index="0" disallow="tram rail_urban rail rail_electric ship" speed="13.89" length="9.64" shape="1532.09,1001.43 1522.91,998.45"/>
    </edge>
    <edge id=":1225262867_2" function="internal">
        <lane id=":1225262867_2_0" index="0" disallow="tram rail_urban rail rail_electric ship" speed="13.89" length="9.64" shape="1523.93,995.31 1533.11,998.29"/>
    </edge>
    <edge id=":1225262867_3" function="internal">
        <lane id=":1225262867_3_0" index="0" disallow="tram rail_urban rail rail_electric ship" speed="13.89" length="5.46" shape="1523.93,995.31 1526.84,996.74 1528.21,998.49"/>
    </edge>
    <edge id=":1225262867_6" function="internal">
        <lane id=":1225262867_6_0" index="0" speed="13.89" length="5.98" shape="1528.21,998.49 1528.37,998.69 1528.54,1001.17 1527.35,1004.18"/>
    </edge>
    <edge id=":1225262867_4" function="internal">
        <lane id=":1225262867_4_0" index="0" disallow="tram rail_urban rail rail_electric ship" speed="13.89" length="5.27" shape="1524.49,1002.53 1525.04,1001.15 1524.96,1000.01 1524.25,999.11 1522.91,998.45"/>
    </edge>
    <edge id=":1225262867_5" function="internal">
        <lane id=":1225262867_5_0" index="0" disallow="tram rail_urban rail rail_electric ship" speed="13.89" length="10.50" shape="1524.49,1002.53 1526.30,1000.04 1528.35,998.50 1530.61,997.92 1533.11,998.29"/>
    </edge>
    <edge id=":1225263090_0" function="internal">
        <lane id=":1225263090_0_0" index="0" disallow="tram rail_urban rail rail_electric ship" speed="13.89" length="4.82" shape="1486.65,1075.12 1485.32,1075.78 1484.40,1075.73 1483.89,1074.96 1483.79,1073.48"/>
    </edge>
    <edge id=":1225263169_0" function="internal">
        <lane id=":1225263169_0_0" index="0" disallow="tram rail_urban rail rail_electric ship" speed="13.89" length="0.30" shape="1619.17,1322.21 1619.43,1322.35"/>
    </edge>
    <edge id=":1225263340_0" function="internal">
        <lane id=":1225263340_0_0" index="0" disallow="tram rail_urban rail rail_electric ship" speed="16.67" length="0.10" shape="999.81,863.65 999.81,863.65"/>
        <lane id=":1225263340_0_1" index="1" disallow="tram rail_urban rail rail_electric ship" speed="16.67" length="0.10" shape="1001.44,860.78 1001.44,860.78"/>
    </edge>
    <edge id=":1225263340_2" function="internal">
        <lane id=":1225263340_2_0" index="0" disallow="tram rail_urban rail rail_electric ship" speed="16.67" length="0.10" shape="1004.69,855.05 1004.69,855.05"/>
        <lane id=":1225263340_2_1" index="1" disallow="tram rail_urban rail rail_electric ship" speed="16.67" length="0.10" shape="1003.06,857.92 1003.06,857.92"/>
    </edge>
    <edge id=":1225263431_0" function="internal">
        <lane id=":1225263431_0_0" index="0" disallow="tram rail_urban rail rail_electric ship" speed="13.89" length="0.30" shape="1576.73,1416.95 1576.47,1416.81"/>
    </edge>
    <edge id=":1225263451_0" function="internal">
        <lane id=":1225263451_0_0" index="0" disallow="tram rail_urban rail rail_electric ship" speed="13.89" length="0.28" shape="825.72,653.82 825.47,653.70"/>
    </edge>
    <edge id=":1225263451_1" function="internal">
        <lane id=":1225263451_1_0" index="0" disallow="tram rail_urban rail rail_electric ship" speed="13.89" length="0.31" shape="826.92,650.73 827.20,650.87"/>
    </edge>
    <edge id=":1225263519_0" function="internal">
        <lane id=":1225263519_0_0" index="0" disallow="tram rail_urban rail rail_electric ship" speed="13.89" length="5.01" shape="1511.57,1037.94 1510.28,1037.44 1509.14,1037.47 1508.16,1038.02 1507.31,1039.09"/>
    </edge>
    <edge id=":1225263519_1" function="internal">
        <lane id=":1225263519_1_0" index="0" disallow="tram rail_urban rail rail_electric ship" speed="13.89" length="7.87" shape="1511.57,1037.94 1509.22,1036.40 1507.76,1034.90 1507.20,1033.46 1507.54,1032.07"/>
    </edge>
    <edge id=":1225263519_2" function="internal">
        <lane id=":1225263519_2_0" index="0" disallow="tram rail_urban rail rail_electric ship" speed="13.89" length="6.20" shape="1510.40,1033.71 1507.31,1039.09"/>
    </edge>
    <edge id=":1225263519_3" function="internal">
        <lane id=":1225263519_3_0" index="0" disallow="tram rail_urban rail rail_electric ship" speed="13.89" length="6.20" shape="1504.45,1037.45 1507.54,1032.07"/>
    </edge>
    <edge id=":1225263707_0" function="internal">
        <lane id=":1225263707_0_0" index="0" disallow="tram rail_urban rail rail_electric ship" speed="13.89" length="5.03" shape="1057.96,766.35 1056.68,765.87 1055.54,765.93 1054.57,766.51 1053.74,767.62"/>
    </edge>
    <edge id=":1225263707_1" function="internal">
        <lane id=":1225263707_1_0" index="0" disallow="tram rail_urban rail rail_electric ship" speed="13.89" length="9.52" shape="1057.96,766.35 1049.57,761.86"/>
    </edge>
    <edge id=":1225263707_2" function="internal">
        <lane id=":1225263707_2_0" index="0" disallow="tram rail_urban rail rail_electric ship" speed="13.89" length="9.56" shape="1051.10,758.94 1059.54,763.45"/>
    </edge>
    <edge id=":1225263707_3" function="internal">
        <lane id=":1225263707_3_0" index="0" disallow="tram rail_urban rail rail_electric ship" speed="13.89" length="5.33" shape="1051.10,758.94 1053.41,760.61 1054.62,762.62 1054.63,762.75"/>
    </edge>
    <edge id=":1225263707_6" function="internal">
        <lane id=":1225263707_6_0" index="0" speed="13.89" length="5.05" shape="1054.63,762.75 1054.73,764.95 1053.74,767.62"/>
    </edge>
    <edge id=":1225263707_4" function="internal">
        <lane id=":1225263707_4_0" index="0" disallow="tram rail_urban rail rail_electric ship" speed="13.89" length="5.01" shape="1050.84,766.05 1051.32,764.76 1051.27,763.64 1050.68,762.67 1049.57,761.86"/>
    </edge>
    <edge id=":1225263707_5" function="internal">
        <lane id=":1225263707_5_0" index="0" disallow="tram rail_urban rail rail_electric ship" speed="13.89" length="10.35" shape="1050.84,766.05 1052.54,763.77 1054.55,762.57 1056.88,762.47 1059.54,763.45"/>
    </edge>
    <edge id=":1225263728_0" function="internal">
        <lane id=":1225263728_0_0" index="0" disallow="tram rail_urban rail rail_electric ship" speed="13.89" length="5.38" shape="965.24,717.44 963.79,716.92 962.65,717.06 961.82,717.86 961.30,719.31"/>
    </edge>
    <edge id=":1225263728_1" function="internal">
        <lane id=":1225263728_1_0" index="0" disallow="tram rail_urban rail rail_electric ship" speed="13.89" length="14.53" shape="965.24,717.44 952.12,711.20"/>
    </edge>
    <edge id=":1225263728_2" function="internal">
        <lane id=":1225263728_2_0" index="0" disallow="tram rail_urban rail rail_electric ship" speed="13.89" length="12.46" shape="965.24,717.44 962.59,715.54 960.93,713.17 960.26,710.30 960.59,706.96"/>
    </edge>
    <edge id=":1225263728_3" function="internal">
        <lane id=":1225263728_3_0" index="0" disallow="tram rail_urban rail rail_electric ship" speed="13.89" length="8.08" shape="963.81,707.70 963.59,709.88 964.01,711.75 965.08,713.30 966.78,714.52"/>
    </edge>
    <edge id=":1225263728_4" function="internal">
        <lane id=":1225263728_4_0" index="0" disallow="tram rail_urban rail rail_electric ship" speed="13.89" length="11.88" shape="963.81,707.70 961.30,719.31"/>
    </edge>
    <edge id=":1225263728_5" function="internal">
        <lane id=":1225263728_5_0" index="0" disallow="tram rail_urban rail rail_electric ship" speed="13.89" length="8.74" shape="963.81,707.70 962.40,710.87 959.98,712.52 957.64,712.59"/>
    </edge>
    <edge id=":1225263728_12" function="internal">
        <lane id=":1225263728_12_0" index="0" speed="13.89" length="5.74" shape="957.64,712.59 956.56,712.63 952.12,711.20"/>
    </edge>
    <edge id=":1225263728_6" function="internal">
        <lane id=":1225263728_6_0" index="0" disallow="tram rail_urban rail rail_electric ship" speed="13.89" length="5.25" shape="953.46,708.19 954.88,708.59 956.01,708.39 956.84,707.61 957.37,706.23"/>
    </edge>
    <edge id=":1225263728_7" function="internal">
        <lane id=":1225263728_7_0" index="0" disallow="tram rail_urban rail rail_electric ship" speed="13.89" length="14.75" shape="953.46,708.19 966.78,714.52"/>
    </edge>
    <edge id=":1225263728_8" function="internal">
        <lane id=":1225263728_8_0" index="0" disallow="tram rail_urban rail rail_electric ship" speed="13.89" length="14.81" shape="953.46,708.19 957.42,710.42 960.05,713.02 961.34,715.98 961.30,719.31"/>
    </edge>
    <edge id=":1225263728_9" function="internal">
        <lane id=":1225263728_9_0" index="0" disallow="tram rail_urban rail rail_electric ship" speed="13.89" length="7.99" shape="954.83,718.01 955.05,715.65 954.67,713.74 953.70,712.25 952.12,711.20"/>
    </edge>
    <edge id=":1225263728_10" function="internal">
        <lane id=":1225263728_10_0" index="0" disallow="tram rail_urban rail rail_electric ship" speed="13.89" length="12.05" shape="954.83,718.01 957.37,706.23"/>
    </edge>
    <edge id=":1225263728_11" function="internal">
        <lane id=":1225263728_11_0" index="0" disallow="tram rail_urban rail rail_electric ship" speed="13.89" length="5.67" shape="958.07,718.66 959.21,715.44 960.84,713.88"/>
    </edge>
    <edge id=":1225263728_13" function="internal">
        <lane id=":1225263728_13_0" index="0" speed="13.89" length="6.24" shape="960.84,713.88 961.04,713.68 963.56,713.37 966.78,714.52"/>
    </edge>
    <edge id=":1244242216_0" function="internal">