<routes>

	<route id="test" edges="56_in -gneE136 -gneE135 -gneE138 -gneE134.0 -gneE134.271 -175017439 -106505879 -212739776 -106505854 -106505987 -106505990 39_W_i_0 39_W_i 39_E_o 37_W_i 37_E_o -102735078#1 -102735078#0 -164362504#1 -164362504#0.0 -164362504#0.8 35_W_i_0 35_W_i 35_E_o 35_E_o_2 34_W_i 34_E_o -514463212#1.16 32_W_i 32_E_o 31_W_i 31_E_o gneE82.0 gneE82.3 gneE82.28 gneE83 27832981#0.162.0 29_W_i 29_S_o 46420201#1.0.23.0 46420201#1.0.23.43 19_W_i 19_E_o 19_E_o_2 -102735130#2.376.0 -102735130#2.376.11 -26277048#1 -102735069 gneE163 gneE187 gneE188 gneE192 gneE196 gneE199 gneE165.0 gneE165.116 18_out"/>

	<flow id="testflow" color="1,1,1" begin="0" end="3600" number="453" route="test"/>
	
</routes>