<?xml version="1.0" encoding="UTF-8"?>

<!-- generated on 01/17/18 10:18:00 by SUMO polyconvert Version 0.31.0
<?xml version="1.0" encoding="UTF-8"?>

<configuration xmlns:xsi="http://www.w3.org/2001/XMLSchema-instance" xsi:noNamespaceSchemaLocation="http://sumo.dlr.de/xsd/polyconvertConfiguration.xsd">

    <input>
        <net-file value="C:\Users\B.Maximcsuk\Sumo\2018-01-17-10-17-52\osm.net.xml"/>
        <osm-files value="osm_bbox.osm.xml"/>
        <osm.keep-full-type value="true"/>
        <type-file value="C:\Program%20Files%20(x86)\DLR\Sumo\data\typemap\osmPolyconvert.typ.xml"/>
    </input>

    <output>
        <output-file value="C:\Users\B.Maximcsuk\Sumo\2018-01-17-10-17-52\osm.poly.xml"/>
    </output>

    <processing>
        <poi-layer-offset value="5"/>
    </processing>

    <report>
        <verbose value="true"/>
    </report>

</configuration>
-->

<additional xmlns:xsi="http://www.w3.org/2001/XMLSchema-instance" xsi:noNamespaceSchemaLocation="http://sumo.dlr.de/xsd/additional_file.xsd">
    <location netOffset="-696346.40,-5283444.33" convBoundary="-48689.00,-49561.46,55485.78,37886.92" origBoundary="16.951056,47.241814,18.351434,48.023358" projParameter="+proj=utm +zone=33 +ellps=WGS84 +datum=WGS84 +units=m +no_defs"/>

	<!-- Szekció_1 : az úthálózattol eltérő infrastruktúraelemeket tartalmazó poligonok (épületek, zöldterületek, stb.) deklarálása-->
	
    <poly id="102420320" type="building.yes" color="255,230,230" fill="1" layer="-1.00" shape="2065.22,1986.01 2125.71,1878.55 2160.96,1815.95 2163.09,1795.46 2153.35,1790.64 2159.60,1768.91 2162.40,1750.01 2162.56,1733.95 2161.24,1720.79 2157.78,1707.15 2152.88,1695.24 2147.20,1683.10 2139.72,1672.27 2135.54,1668.01 2124.91,1668.63 2102.77,1672.77 2054.79,1756.54 1959.06,1926.59 2065.22,1986.01"/>
    <poly id="102420320#1" type="shop.mall" color="237,199,255" fill="1" layer="-1.00" shape="2065.22,1986.01 2125.71,1878.55 2160.96,1815.95 2163.09,1795.46 2153.35,1790.64 2159.60,1768.91 2162.40,1750.01 2162.56,1733.95 2161.24,1720.79 2157.78,1707.15 2152.88,1695.24 2147.20,1683.10 2139.72,1672.27 2135.54,1668.01 2124.91,1668.63 2102.77,1672.77 2054.79,1756.54 1959.06,1926.59 2065.22,1986.01"/>
    <poly id="102432302" type="leisure.swimming_pool" color="207,245,201" fill="1" layer="-2.00" shape="769.97,1625.08 750.39,1624.42 748.68,1674.83 768.26,1675.50 769.97,1625.08"/>
    <poly id="102734880" type="landuse.commercial" color="209,209,204" fill="0" layer="-3.00" shape="1462.81,721.31 1498.28,741.67"/>
    <poly id="102734899" type="leisure.park" color="207,245,201" fill="0" layer="-2.00" shape="2179.60,651.13 2176.70,649.59 2174.28,647.35 2172.52,644.56 2171.53,641.42 2171.38,638.15 2172.07,634.93"/>
    <poly id="102734960" type="building.yes" color="255,230,230" fill="1" layer="-1.00" shape="1498.00,775.13 1506.00,759.02 1558.77,785.12 1550.76,801.22 1498.00,775.13"/>
    <poly id="102735012" type="landuse.commercial" color="209,209,204" fill="0" layer="-3.00" shape="1672.62,639.11 1662.35,668.50"/>
    <poly id="102735081" type="leisure.park" color="207,245,201" fill="0" layer="-2.00" shape="2179.60,651.13 2173.84,658.55 2171.07,663.17 2160.92,680.89 2140.34,717.16"/>
    <poly id="102735086" type="landuse.commercial" color="209,209,204" fill="0" layer="-3.00" shape="1462.81,721.31 1559.15,535.45 1573.88,507.50"/>
    <poly id="103007128" type="landuse.commercial" color="209,209,204" fill="0" layer="-3.00" shape="1498.28,741.67 1505.01,745.31 1571.27,777.19 1615.99,798.72"/>
    <poly id="104379319" type="natural.water" color="181,209,209" fill="1" layer="-4.00" shape="903.90,1662.02 904.99,1644.63 911.83,1627.39 923.45,1599.58 944.21,1563.39 960.40,1538.91 974.74,1515.92 985.58,1494.26 997.91,1455.54 1004.14,1440.23 1008.89,1423.40 1008.08,1379.15 1008.67,1356.66 1007.02,1333.73 1003.72,1308.66 994.45,1279.19 981.54,1256.52 968.14,1234.81 952.76,1217.16 937.98,1196.89 932.28,1189.35 927.73,1187.94 923.34,1190.02 920.32,1191.81 918.33,1193.74 922.24,1210.00 927.71,1233.67 929.59,1260.41 930.05,1287.66 927.56,1312.04 922.04,1351.45 918.01,1367.44 915.46,1376.66 911.88,1400.03 908.88,1418.83 904.48,1434.99 900.44,1449.81 894.45,1477.57 887.26,1515.02 876.36,1569.19 874.76,1585.64 872.52,1605.36 873.77,1614.78 875.63,1621.45 880.21,1630.29 884.17,1635.42 894.43,1654.00 900.84,1662.25 903.90,1662.02"/>
    <poly id="104379319#1" type="waterway.riverbank" color="181,209,209" fill="1" layer="-4.00" shape="903.90,1662.02 904.99,1644.63 911.83,1627.39 923.45,1599.58 944.21,1563.39 960.40,1538.91 974.74,1515.92 985.58,1494.26 997.91,1455.54 1004.14,1440.23 1008.89,1423.40 1008.08,1379.15 1008.67,1356.66 1007.02,1333.73 1003.72,1308.66 994.45,1279.19 981.54,1256.52 968.14,1234.81 952.76,1217.16 937.98,1196.89 932.28,1189.35 927.73,1187.94 923.34,1190.02 920.32,1191.81 918.33,1193.74 922.24,1210.00 927.71,1233.67 929.59,1260.41 930.05,1287.66 927.56,1312.04 922.04,1351.45 918.01,1367.44 915.46,1376.66 911.88,1400.03 908.88,1418.83 904.48,1434.99 900.44,1449.81 894.45,1477.57 887.26,1515.02 876.36,1569.19 874.76,1585.64 872.52,1605.36 873.77,1614.78 875.63,1621.45 880.21,1630.29 884.17,1635.42 894.43,1654.00 900.84,1662.25 903.90,1662.02"/>
    <poly id="105840477" type="amenity.parking" color="184,184,179" fill="1" layer="-1.00" shape="771.23,1039.98 772.80,1038.55 795.85,1017.61 797.01,1016.54 802.03,1005.27 810.46,1000.33 823.24,1015.63 857.23,1042.66 903.88,1079.84 879.19,1118.58 771.23,1039.98"/>
    <poly id="105840668" type="amenity.nightclub" color="237,199,199" fill="1" layer="-1.00" shape="760.49,1023.75 786.28,1006.14 795.85,1017.61 772.80,1038.55 760.49,1023.75"/>
    <poly id="105840668#1" type="building.yes" color="255,230,230" fill="1" layer="-1.00" shape="760.49,1023.75 786.28,1006.14 795.85,1017.61 772.80,1038.55 760.49,1023.75"/>
    <poly id="105841753" type="amenity.bank" color="237,199,199" fill="1" layer="-1.00" shape="1185.30,1234.50 1188.75,1227.74 1202.39,1234.93 1206.31,1227.75 1214.02,1213.72 1229.09,1222.78 1226.56,1227.09 1213.51,1249.97 1200.76,1242.91 1185.30,1234.50"/>
    <poly id="105841753#1" type="building.yes" color="255,230,230" fill="1" layer="-1.00" shape="1185.30,1234.50 1188.75,1227.74 1202.39,1234.93 1206.31,1227.75 1214.02,1213.72 1229.09,1222.78 1226.56,1227.09 1213.51,1249.97 1200.76,1242.91 1185.30,1234.50"/>
    <poly id="106505866" type="amenity.parking" color="184,184,179" fill="1" layer="-1.00" shape="1240.28,1270.46 1228.62,1293.46 1257.02,1308.26 1258.31,1317.93 1283.95,1330.72 1305.94,1295.85 1295.04,1290.05 1285.86,1307.68 1269.64,1299.39 1274.45,1289.99 1240.28,1270.46"/>
    <poly id="106505927" type="amenity.townhall" color="237,199,199" fill="1" layer="-1.00" shape="1402.50,969.81 1383.17,1005.26 1402.91,1015.97 1398.12,1024.76 1427.14,1040.49 1431.81,1031.92 1451.86,1042.78 1471.15,1007.39 1456.00,999.17 1453.13,1004.44 1459.21,1007.74 1449.01,1026.43 1400.67,1000.24 1411.18,980.94 1413.18,982.02 1415.88,977.07 1402.50,969.81"/>
    <poly id="106505927#1" type="building.yes" color="255,230,230" fill="1" layer="-1.00" shape="1402.50,969.81 1383.17,1005.26 1402.91,1015.97 1398.12,1024.76 1427.14,1040.49 1431.81,1031.92 1451.86,1042.78 1471.15,1007.39 1456.00,999.17 1453.13,1004.44 1459.21,1007.74 1449.01,1026.43 1400.67,1000.24 1411.18,980.94 1413.18,982.02 1415.88,977.07 1402.50,969.81"/>
    <poly id="106505989" type="amenity.parking" color="184,184,179" fill="1" layer="-1.00" shape="1035.60,1209.03 1067.22,1293.15 1083.27,1287.15 1051.66,1203.03 1035.60,1209.03"/>
    <poly id="106505993" type="landuse.commercial" color="209,209,204" fill="0" layer="-3.00" shape="1672.62,639.11 1598.25,531.67 1590.61,521.06 1573.88,507.50"/>
    <poly id="106512042" type="amenity.place_of_worship" color="237,199,199" fill="1" layer="-1.00" shape="1085.30,1650.82 1094.00,1654.84 1092.59,1657.87 1107.44,1664.72 1108.88,1661.61 1134.97,1673.66 1146.65,1648.51 1117.78,1635.21 1105.21,1629.42 1096.98,1625.66 1085.30,1650.82"/>
    <poly id="106512042#1" type="building.church" color="255,230,230" fill="1" layer="-1.00" shape="1085.30,1650.82 1094.00,1654.84 1092.59,1657.87 1107.44,1664.72 1108.88,1661.61 1134.97,1673.66 1146.65,1648.51 1117.78,1635.21 1105.21,1629.42 1096.98,1625.66 1085.30,1650.82"/>
    <poly id="107286427" type="leisure.park" color="207,245,201" fill="1" layer="-2.00" shape="1058.95,822.73 1080.95,782.24 1160.96,823.70 1158.57,832.45 1152.88,832.50 1133.68,865.27 1135.41,871.58 1113.90,910.92 1112.96,912.63 1008.56,853.85 1013.01,845.73 1033.51,808.98 1058.95,822.73"/>
    <poly id="107549892" type="amenity.parking" color="184,184,179" fill="1" layer="-1.00" shape="1968.51,1238.12 1991.84,1250.62 1974.14,1283.74 1949.98,1271.47 1968.51,1238.12"/>
    <poly id="107549899" type="amenity.parking" color="184,184,179" fill="1" layer="-1.00" shape="1940.67,1239.51 1929.98,1257.70 1921.39,1273.14 1886.08,1253.54 1882.31,1243.59 1899.04,1215.73 1940.67,1239.51"/>
    <poly id="107549905" type="building.yes" color="255,230,230" fill="1" layer="-1.00" shape="2229.58,1636.83 2242.46,1644.75 2221.94,1683.47 2273.65,1712.88 2265.70,1726.41 2201.26,1685.39 2211.02,1661.41 2214.57,1663.20 2229.58,1636.83"/>
    <poly id="107549905#1" type="tourism.hotel" color="207,245,201" fill="1" layer="-2.00" shape="2229.58,1636.83 2242.46,1644.75 2221.94,1683.47 2273.65,1712.88 2265.70,1726.41 2201.26,1685.39 2211.02,1661.41 2214.57,1663.20 2229.58,1636.83"/>
    <poly id="107549909" type="amenity.parking" color="184,184,179" fill="1" layer="-1.00" shape="2454.59,1435.16 2329.37,1514.25 2317.51,1531.12 2373.40,1569.97 2389.55,1581.19 2486.60,1453.74 2475.41,1433.29 2471.24,1425.69 2454.59,1435.16"/>
    <poly id="107556520" type="leisure.pitch" color="207,245,201" fill="1" layer="-2.00" shape="866.98,1260.36 859.70,1219.53 839.60,1223.87 847.10,1264.30 866.98,1260.36"/>
    <poly id="107556520#1" type="sport.basketball" color="79,230,125" fill="1" layer="-2.00" shape="866.98,1260.36 859.70,1219.53 839.60,1223.87 847.10,1264.30 866.98,1260.36"/>
    <poly id="107699825" type="building.school" color="255,230,230" fill="1" layer="-1.00" shape="2774.27,1406.07 2787.35,1393.46 2789.85,1396.23 2796.02,1389.94 2803.24,1396.73 2794.26,1405.62 2825.24,1439.04 2842.92,1422.85 2850.80,1430.86 2821.91,1457.58 2774.27,1406.07"/>
    <poly id="108438351" type="amenity.parking" color="184,184,179" fill="1" layer="-1.00" shape="1463.74,1223.73 1497.33,1160.20 1509.76,1165.44 1474.84,1230.90 1463.74,1223.73"/>
    <poly id="108438353" type="landuse.industrial" color="209,209,204" fill="1" layer="-3.00" shape="2999.94,869.01 3058.02,808.93 3006.91,760.91 2984.41,737.72 2967.68,752.86 2866.42,654.48 2692.05,791.16 2670.06,762.48 2641.09,784.60 2562.05,924.52 2574.36,946.68 2633.97,1044.82 2672.31,1108.72 2673.94,1143.33 2730.75,1144.07 2754.43,1123.19 2734.96,1103.23 2738.32,1076.02 2784.98,1031.41 2811.97,1057.82 2876.09,988.58 2958.20,909.31 2999.94,869.01"/>
    <poly id="108438354" type="building.yes" color="255,230,230" fill="1" layer="-1.00" shape="1581.69,1332.09 1587.30,1321.81 1595.39,1326.21 1598.61,1320.31 1607.16,1324.97 1599.80,1338.40 1593.47,1334.96 1591.98,1337.68 1581.69,1332.09"/>
    <poly id="109403246" type="amenity.bank" color="237,199,199" fill="1" layer="-1.00" shape="1576.30,767.01 1582.45,753.32 1607.56,764.55 1601.40,778.25 1576.30,767.01"/>
    <poly id="109403246#1" type="building.yes" color="255,230,230" fill="1" layer="-1.00" shape="1576.30,767.01 1582.45,753.32 1607.56,764.55 1601.40,778.25 1576.30,767.01"/>
    <poly id="109405583" type="building.yes" color="255,230,230" fill="1" layer="-1.00" shape="970.96,746.13 987.71,739.47 982.68,733.27 969.63,737.65 970.96,746.13"/>
    <poly id="109405586" type="building.yes" color="255,230,230" fill="1" layer="-1.00" shape="960.52,816.64 973.26,793.97 961.75,787.54 949.01,810.20 960.52,816.64"/>
    <poly id="109405587" type="building.yes" color="255,230,230" fill="1" layer="-1.00" shape="973.96,762.63 982.18,747.85 985.67,749.77 989.69,742.53 1001.67,749.16 996.37,758.69 992.65,756.62 989.13,762.95 983.76,759.97 980.33,766.15 973.96,762.63"/>
    <poly id="109405589" type="amenity.school" color="237,199,199" fill="1" layer="-1.00" shape="945.94,817.61 969.90,723.20 975.96,726.36 1049.66,764.71 1004.28,849.78 978.82,836.43 945.94,817.61"/>
    <poly id="109405591" type="building.school" color="255,230,230" fill="1" layer="-1.00" shape="972.84,813.68 994.58,825.21 1019.60,778.28 998.44,767.06 1005.62,753.58 1037.49,770.46 1000.18,840.44 967.74,823.24 972.84,813.68"/>
    <poly id="109579697" type="amenity.restaurant" color="237,199,199" fill="1" layer="-1.00" shape="1700.97,832.02 1713.70,810.48 1720.32,814.38 1733.88,791.06 1752.18,801.44 1727.24,843.90 1722.75,841.26 1721.19,843.90 1700.97,832.02"/>
    <poly id="109579697#1" type="building.yes" color="255,230,230" fill="1" layer="-1.00" shape="1700.97,832.02 1713.70,810.48 1720.32,814.38 1733.88,791.06 1752.18,801.44 1727.24,843.90 1722.75,841.26 1721.19,843.90 1700.97,832.02"/>
    <poly id="110594717" type="amenity.college" color="237,199,199" fill="1" layer="-1.00" shape="2755.30,1121.35 2736.43,1101.88 2739.89,1077.49 2785.12,1033.83 2811.42,1059.84 2755.30,1121.35"/>
    <poly id="111417590" type="leisure.park" color="207,245,201" fill="0" layer="-2.00" shape="2172.07,634.93 2172.21,632.77 2171.28,630.42 2168.80,626.22 2162.66,618.03"/>
    <poly id="111417593" type="leisure.park" color="207,245,201" fill="0" layer="-2.00" shape="2162.66,618.03 2153.96,612.44 2128.02,595.76 2073.06,564.05"/>
    <poly id="116685159" type="leisure.park" color="207,245,201" fill="1" layer="-2.00" shape="602.30,1333.55 621.62,1296.06 744.43,1411.32 718.31,1435.34 696.69,1417.39 602.30,1333.55"/>
    <poly id="117385900" type="building.yes" color="255,230,230" fill="1" layer="-1.00" shape="1135.41,871.58 1143.94,876.27 1164.13,841.52 1158.57,832.45 1152.88,832.50 1133.68,865.27 1135.41,871.58"/>
    <poly id="117385900#1" type="tourism.hotel" color="207,245,201" fill="1" layer="-2.00" shape="1135.41,871.58 1143.94,876.27 1164.13,841.52 1158.57,832.45 1152.88,832.50 1133.68,865.27 1135.41,871.58"/>
    <poly id="119765703" type="building.yes" color="255,230,230" fill="1" layer="-1.00" shape="1440.46,840.99 1453.14,847.04 1462.80,826.91 1450.11,820.86 1440.46,840.99"/>
    <poly id="119765705" type="building.yes" color="255,230,230" fill="1" layer="-1.00" shape="1457.97,852.08 1470.82,848.21 1468.71,841.28 1455.86,845.16 1457.97,852.08"/>
    <poly id="119765706" type="building.train_station" color="255,230,230" fill="1" layer="-1.00" shape="1337.26,899.80 1338.77,897.07 1371.79,914.71 1381.35,897.50 1348.62,879.48 1350.36,876.33 1326.59,863.24 1325.58,865.08 1295.04,848.25 1296.00,846.53 1281.70,838.65 1270.63,858.62 1284.40,866.21 1284.94,865.24 1316.52,882.64 1314.08,887.04 1337.26,899.80"/>
    <poly id="121040290" type="building.retail" color="255,230,230" fill="1" layer="-1.00" shape="2589.69,1690.89 2620.65,1715.05 2637.07,1693.23 2632.83,1687.91 2659.54,1652.40 2642.21,1639.88 2645.94,1634.48 2638.25,1628.96 2589.69,1690.89"/>
    <poly id="121040290#1" type="shop.supermarket" color="237,199,255" fill="1" layer="-1.00" shape="2589.69,1690.89 2620.65,1715.05 2637.07,1693.23 2632.83,1687.91 2659.54,1652.40 2642.21,1639.88 2645.94,1634.48 2638.25,1628.96 2589.69,1690.89"/>
    <poly id="121040317" type="amenity.parking" color="184,184,179" fill="1" layer="-1.00" shape="2533.56,1693.00 2631.29,1566.02 2660.85,1589.52 2564.79,1716.02 2533.56,1693.00"/>
    <poly id="121040318" type="amenity.parking" color="184,184,179" fill="1" layer="-1.00" shape="2572.83,1721.34 2590.95,1700.50 2620.78,1721.49 2669.79,1650.68 2695.61,1668.17 2628.44,1755.74 2572.83,1721.34"/>
    <poly id="121040321" type="building.retail" color="255,230,230" fill="1" layer="-1.00" shape="2393.61,1584.85 2424.56,1543.81 2468.12,1486.05 2605.56,1589.07 2557.88,1652.30 2531.05,1687.88 2393.61,1584.85"/>
    <poly id="121040321#1" type="shop.supermarket" color="237,199,255" fill="1" layer="-1.00" shape="2393.61,1584.85 2424.56,1543.81 2468.12,1486.05 2605.56,1589.07 2557.88,1652.30 2531.05,1687.88 2393.61,1584.85"/>
    <poly id="122825500" type="landuse.forest" color="140,196,107" fill="0" layer="-3.00" shape="320.44,293.72 321.12,300.61 340.32,396.95 342.17,442.81 351.33,544.24 355.52,581.37 366.60,626.20 379.88,656.17 392.86,684.77 411.80,718.66 433.95,747.96 456.95,773.37 485.83,805.39 522.18,840.61 562.31,877.79 601.26,917.06 640.80,951.03 676.70,985.32"/>
    <poly id="122825563" type="landuse.grass" color="194,194,130" fill="0" layer="-3.00" shape="249.37,2024.80 272.94,1957.29 332.10,1968.27 346.44,1970.89 395.31,1970.44 450.92,1954.30 472.46,1933.43 492.85,1891.92 515.86,1853.93 551.16,1795.65 601.35,1712.79 610.87,1697.07 602.07,1688.68 609.15,1680.27 617.23,1666.38 649.13,1567.81 714.00,1583.83 748.08,1598.86 809.81,1601.40 824.23,1597.75 831.65,1586.03 837.00,1537.41 846.21,1497.75 846.96,1481.47 856.15,1451.43 855.95,1448.60 856.20,1433.56 857.46,1433.43 863.16,1372.67 841.37,1236.74 817.90,1160.46 768.23,1154.74 751.85,1145.55 708.36,1139.66 675.12,1076.89 595.14,1003.89 535.68,961.89 453.76,890.55 356.58,771.97 340.98,739.43 312.90,698.86 289.31,671.38 274.16,641.15 258.24,622.69 232.57,585.77 203.24,549.77 191.12,537.02 175.64,512.41 156.78,474.83 130.92,421.27"/>
    <poly id="123076359" type="landuse.grass" color="194,194,130" fill="0" layer="-3.00" shape="967.53,1188.65 989.68,1210.21 1006.32,1231.48 1019.94,1261.11 1028.79,1291.27 1032.65,1315.57 1037.98,1359.01 1041.16,1427.59 1038.40,1446.90 1015.01,1505.74 1005.80,1523.62 976.57,1568.28 951.56,1613.08 940.62,1637.77 938.04,1649.69 936.82,1659.79 936.86,1669.06 940.03,1678.78 958.76,1700.58 968.14,1708.60 1005.57,1737.49 1021.49,1749.05 1040.64,1758.44 1092.25,1777.86"/>
    <poly id="123076380" type="landuse.railway" color="194,194,130" fill="0" layer="-3.00" shape="2170.02,1419.98 2128.40,1367.82 2075.61,1293.90 2044.05,1260.18 1994.79,1220.07 1929.78,1189.23 1875.56,1167.92 1741.37,1108.36 1537.83,997.09 1498.89,992.27 1446.14,965.77 1325.30,893.96 1204.58,822.22 1182.77,828.15 968.42,713.65"/>
    <poly id="123076387" type="landuse.residential" color="235,235,227" fill="0" layer="-3.00" shape="3482.58,444.89 3430.84,480.39 3383.85,515.20 3355.83,532.90 3318.72,522.00 3211.77,488.53 3192.53,535.79 3103.23,507.78 3012.63,482.98 2873.01,444.77 2789.50,421.05 2768.96,451.20 2910.94,586.04 2904.94,591.49 2918.03,604.51 2877.16,646.29 2866.42,654.48 2692.05,791.16 2670.06,762.48 2641.09,784.60 2562.05,924.52 2574.36,946.68 2633.97,1044.82 2672.31,1108.72 2673.94,1143.33 2578.04,1140.13 2510.37,1030.65 2488.53,996.39 2435.30,912.88 2425.95,898.14 2400.93,858.70 2409.64,850.29 2322.39,763.63 2208.86,650.85 2187.16,670.84 2148.11,777.23 2140.37,792.63 2124.59,814.37 2098.48,861.33 2216.80,931.45 2213.90,936.53 2210.59,942.63 2209.29,944.92 2199.82,961.53 2184.39,984.67 2178.37,994.92 2175.26,999.84 2027.69,906.69 1993.35,970.25 1907.80,1128.63"/>
    <poly id="123076405" type="landuse.grass" color="194,194,130" fill="0" layer="-3.00" shape="1008.55,1789.18 1008.38,1779.43 987.26,1768.15 944.41,1731.68 901.02,1688.04 885.09,1668.79 873.30,1649.29 867.33,1637.67 862.39,1626.38 860.64,1616.42 857.84,1604.54 857.78,1579.48 861.01,1560.12 872.13,1505.31 879.67,1473.14 886.13,1445.56 892.19,1414.62 896.38,1390.41 905.39,1361.16 909.69,1344.36 916.55,1308.26 918.50,1284.26 918.60,1256.33 914.64,1231.73 909.54,1209.14 904.71,1200.74 901.58,1194.57 882.51,1179.43 841.25,1151.56 819.60,1137.93 790.10,1119.84 751.64,1092.36 686.41,1046.61 651.51,1021.95 602.61,979.12 564.16,942.14 524.79,904.47 480.85,862.67 446.32,824.94 418.03,791.38 391.21,757.70 373.04,733.21 348.97,700.22 327.93,661.05 323.06,629.32 314.46,587.79 308.43,544.83 305.44,512.20"/>
    <poly id="123076419" type="landuse.grass" color="194,194,130" fill="0" layer="-3.00" shape="767.55,911.64 793.86,944.39 833.69,987.57 848.27,1018.00 859.52,1038.47 876.76,1052.07 900.51,1076.06 957.33,1127.16 998.23,1162.43 1020.42,1188.40 1031.52,1206.25 1054.87,1266.11 1065.96,1295.82 1083.71,1294.61 1080.85,1332.08 1074.43,1331.06 1070.00,1414.08 1069.34,1455.71 1065.88,1488.60 1052.28,1486.31 1039.75,1484.03 1003.14,1604.37 992.39,1600.39 996.38,1574.03 981.53,1569.22 950.35,1652.27 1062.90,1694.59 1062.23,1700.27 1063.52,1705.13 1065.82,1709.36 1070.83,1713.23 1078.92,1717.40 1140.22,1745.76 1148.26,1748.18"/>
    <poly id="123076422" type="landuse.retail" color="194,194,130" fill="0" layer="-3.00" shape="2170.02,1419.98 2086.31,1545.51 2122.34,1576.07 1978.86,1799.41 1904.87,1923.00"/>
    <poly id="125913689" type="building.yes" color="255,230,230" fill="1" layer="-1.00" shape="2618.84,657.00 2628.93,662.43 2653.59,616.84 2643.50,611.41 2618.84,657.00"/>
    <poly id="125913690" type="building.yes" color="255,230,230" fill="1" layer="-1.00" shape="2653.59,616.84 2662.27,621.20 2685.07,576.06 2676.40,571.70 2653.59,616.84"/>
    <poly id="125913691" type="building.yes" color="255,230,230" fill="1" layer="-1.00" shape="2685.07,576.06 2695.29,581.67 2720.26,536.56 2710.04,530.95 2685.07,576.06"/>
    <poly id="128239567" type="amenity.parking" color="184,184,179" fill="1" layer="-1.00" shape="1410.81,970.89 1479.87,1008.55 1488.32,992.64 1419.57,955.41 1410.81,970.89"/>
    <poly id="128239568" type="amenity.parking" color="184,184,179" fill="1" layer="-1.00" shape="1270.78,896.56 1351.26,941.49 1360.59,924.79 1279.59,880.48 1270.78,896.56"/>
    <poly id="129684417" type="leisure.park" color="207,245,201" fill="0" layer="-2.00" shape="2073.06,564.05 2066.01,582.21 2039.67,650.11 2035.65,660.49"/>
    <poly id="129684430" type="leisure.pitch" color="207,245,201" fill="1" layer="-2.00" shape="2106.27,626.59 2147.78,644.32 2157.00,622.84 2115.51,605.12 2106.27,626.59"/>
    <poly id="129684430#1" type="sport.handball" color="79,230,125" fill="1" layer="-2.00" shape="2106.27,626.59 2147.78,644.32 2157.00,622.84 2115.51,605.12 2106.27,626.59"/>
    <poly id="129808534" type="amenity.courthouse" color="237,199,199" fill="1" layer="-1.00" shape="1146.15,928.86 1185.69,950.27 1209.70,906.20 1170.16,884.78 1167.76,889.18 1146.15,928.86"/>
    <poly id="129808534#1" type="building.yes" color="255,230,230" fill="1" layer="-1.00" shape="1146.15,928.86 1185.69,950.27 1209.70,906.20 1170.16,884.78 1167.76,889.18 1146.15,928.86"/>
    <poly id="129808536" type="amenity.prison" color="237,199,199" fill="1" layer="-1.00" shape="1227.21,859.95 1233.80,863.62 1238.90,854.53 1230.35,849.76 1199.01,832.48 1186.82,854.45 1173.14,879.10 1206.39,897.45 1227.21,859.95"/>
    <poly id="129808536#1" type="building.yes" color="255,230,230" fill="1" layer="-1.00" shape="1227.21,859.95 1233.80,863.62 1238.90,854.53 1230.35,849.76 1199.01,832.48 1186.82,854.45 1173.14,879.10 1206.39,897.45 1227.21,859.95"/>
    <poly id="129808538" type="amenity.courthouse" color="237,199,199" fill="1" layer="-1.00" shape="921.36,743.40 940.61,707.73 926.36,700.79 919.86,709.83 907.04,702.11 910.71,693.53 903.08,690.32 893.93,711.05 921.36,743.40"/>
    <poly id="129808538#1" type="building.yes" color="255,230,230" fill="1" layer="-1.00" shape="921.36,743.40 940.61,707.73 926.36,700.79 919.86,709.83 907.04,702.11 910.71,693.53 903.08,690.32 893.93,711.05 921.36,743.40"/>
    <poly id="129808565" type="building.school" color="255,230,230" fill="1" layer="-1.00" shape="993.03,961.12 1017.48,917.89 1008.27,912.70 992.15,941.19 972.88,930.36 964.54,945.10 993.03,961.12"/>
    <poly id="129808574" type="amenity.courthouse" color="237,199,199" fill="1" layer="-1.00" shape="986.42,876.35 996.57,881.70 1003.52,869.73 984.76,859.06 979.60,859.50 959.94,890.49 972.96,898.56 986.42,876.35"/>
    <poly id="129808574#1" type="building.yes" color="255,230,230" fill="1" layer="-1.00" shape="986.42,876.35 996.57,881.70 1003.52,869.73 984.76,859.06 979.60,859.50 959.94,890.49 972.96,898.56 986.42,876.35"/>
    <poly id="129808575" type="amenity.school" color="237,199,199" fill="1" layer="-1.00" shape="1001.12,965.37 1010.10,970.14 1026.95,941.01 1053.97,956.41 1073.57,921.71 1078.82,912.28 1042.51,891.96 1001.12,965.37"/>
    <poly id="129808575#1" type="building.yes" color="255,230,230" fill="1" layer="-1.00" shape="1001.12,965.37 1010.10,970.14 1026.95,941.01 1053.97,956.41 1073.57,921.71 1078.82,912.28 1042.51,891.96 1001.12,965.37"/>
    <poly id="129808577" type="amenity.school" color="237,199,199" fill="1" layer="-1.00" shape="1033.22,930.08 1049.65,939.47 1062.24,917.60 1045.81,908.20 1033.22,930.08"/>
    <poly id="129808577#1" type="building.yes" color="255,230,230" fill="1" layer="-1.00" shape="1033.22,930.08 1049.65,939.47 1062.24,917.60 1045.81,908.20 1033.22,930.08"/>
    <poly id="132025529" type="leisure.park" color="207,245,201" fill="1" layer="-2.00" shape="904.48,1434.99 1004.14,1440.23 997.91,1455.54 985.58,1494.26 974.74,1515.92 960.40,1538.91 944.21,1563.39 923.45,1599.58 911.83,1627.39 904.99,1644.63 903.90,1662.02 900.84,1662.25 894.43,1654.00 884.17,1635.42 880.21,1630.29 875.63,1621.45 873.77,1614.78 872.52,1605.36 874.76,1585.64 876.36,1569.19 887.26,1515.02 894.45,1477.57 900.44,1449.81 904.48,1434.99"/>
    <poly id="132025534" type="leisure.park" color="207,245,201" fill="1" layer="-2.00" shape="1008.89,1423.40 908.88,1418.83 911.88,1400.03 915.46,1376.66 918.01,1367.44 922.04,1351.45 927.56,1312.04 930.05,1287.66 929.59,1260.41 927.71,1233.67 922.24,1210.00 918.33,1193.74 920.32,1191.81 923.34,1190.02 927.73,1187.94 932.28,1189.35 937.98,1196.89 952.76,1217.16 968.14,1234.81 981.54,1256.52 994.45,1279.19 1003.72,1308.66 1007.02,1333.73 1008.67,1356.66 1008.08,1379.15 1008.89,1423.40"/>
    <poly id="142709323" type="building.retail" color="255,230,230" fill="1" layer="-1.00" shape="1966.45,1101.73 1989.52,1113.62 2015.88,1069.72 2021.13,1072.14 2028.32,1058.96 1999.66,1044.62 1983.14,1072.93 1966.45,1101.73"/>
    <poly id="142709323#1" type="shop.supermarket" color="237,199,255" fill="1" layer="-1.00" shape="1966.45,1101.73 1989.52,1113.62 2015.88,1069.72 2021.13,1072.14 2028.32,1058.96 1999.66,1044.62 1983.14,1072.93 1966.45,1101.73"/>
    <poly id="142709329" type="amenity.parking" color="184,184,179" fill="1" layer="-1.00" shape="2041.37,1091.28 2020.77,1080.90 2032.37,1055.92 2004.93,1041.51 2009.68,1032.88 2000.83,1028.74 2014.30,1002.16 2071.84,1031.16 2041.37,1091.28"/>
    <poly id="145681697" type="building.yes" color="255,230,230" fill="1" layer="-1.00" shape="786.78,1528.50 788.64,1523.91 774.38,1518.17 750.64,1574.90 765.58,1580.66 769.28,1571.81 784.65,1584.31 788.43,1579.72 797.60,1583.13 800.68,1576.94 802.16,1577.26 804.80,1570.77 806.84,1571.39 812.19,1557.49 802.29,1553.56 803.51,1552.34 806.13,1552.32 809.13,1551.27 811.50,1549.54 813.33,1546.81 814.76,1543.87 815.30,1540.74 815.54,1537.44 815.39,1533.92 814.36,1530.65 812.86,1528.01 810.43,1525.32 807.69,1523.27 804.06,1521.77 800.17,1521.33 796.78,1521.54 793.37,1522.86 790.60,1524.47 788.88,1529.33 786.78,1528.50"/>
    <poly id="145681697#1" type="leisure.water_park" color="207,245,201" fill="1" layer="-2.00" shape="786.78,1528.50 788.64,1523.91 774.38,1518.17 750.64,1574.90 765.58,1580.66 769.28,1571.81 784.65,1584.31 788.43,1579.72 797.60,1583.13 800.68,1576.94 802.16,1577.26 804.80,1570.77 806.84,1571.39 812.19,1557.49 802.29,1553.56 803.51,1552.34 806.13,1552.32 809.13,1551.27 811.50,1549.54 813.33,1546.81 814.76,1543.87 815.30,1540.74 815.54,1537.44 815.39,1533.92 814.36,1530.65 812.86,1528.01 810.43,1525.32 807.69,1523.27 804.06,1521.77 800.17,1521.33 796.78,1521.54 793.37,1522.86 790.60,1524.47 788.88,1529.33 786.78,1528.50"/>
    <poly id="145681698" type="building.yes" color="255,230,230" fill="1" layer="-1.00" shape="687.92,1498.86 706.83,1514.32 715.55,1504.07 695.26,1488.92 687.92,1498.86"/>
    <poly id="145681698#1" type="tourism.hotel" color="207,245,201" fill="1" layer="-2.00" shape="687.92,1498.86 706.83,1514.32 715.55,1504.07 695.26,1488.92 687.92,1498.86"/>
    <poly id="145681716" type="leisure.swimming_pool" color="207,245,201" fill="1" layer="-2.00" shape="833.49,1514.31 826.28,1509.44 815.41,1525.44 822.62,1530.32 833.49,1514.31"/>
    <poly id="146789494" type="amenity.place_of_worship" color="237,199,199" fill="1" layer="-1.00" shape="672.11,1241.18 697.37,1268.62 703.85,1262.69 719.87,1280.09 739.73,1261.90 725.32,1246.26 731.40,1240.69 708.49,1212.97 697.30,1221.41 711.28,1236.59 696.41,1250.21 680.78,1233.23 672.11,1241.18"/>
    <poly id="146789494#1" type="building.synagogue" color="255,230,230" fill="1" layer="-1.00" shape="672.11,1241.18 697.37,1268.62 703.85,1262.69 719.87,1280.09 739.73,1261.90 725.32,1246.26 731.40,1240.69 708.49,1212.97 697.30,1221.41 711.28,1236.59 696.41,1250.21 680.78,1233.23 672.11,1241.18"/>
    <poly id="146789494#2" type="historic.heritage" color="128,255,128" fill="1" layer="-1.00" shape="672.11,1241.18 697.37,1268.62 703.85,1262.69 719.87,1280.09 739.73,1261.90 725.32,1246.26 731.40,1240.69 708.49,1212.97 697.30,1221.41 711.28,1236.59 696.41,1250.21 680.78,1233.23 672.11,1241.18"/>
    <poly id="146798749" type="amenity.school" color="237,199,199" fill="1" layer="-1.00" shape="2552.00,932.08 2512.24,868.38 2451.63,905.98 2491.38,969.68 2552.00,932.08"/>
    <poly id="146798749#1" type="building.yes" color="255,230,230" fill="1" layer="-1.00" shape="2552.00,932.08 2512.24,868.38 2451.63,905.98 2491.38,969.68 2552.00,932.08"/>
    <poly id="146798754" type="building.yes" color="255,230,230" fill="1" layer="-1.00" shape="2438.22,856.92 2447.60,848.19 2445.26,845.69 2455.05,836.95 2469.60,842.93 2473.68,833.30 2455.74,826.65 2447.41,796.50 2437.58,800.34 2447.80,829.64 2438.43,838.41 2426.54,825.72 2417.17,834.44 2438.22,856.92"/>
    <poly id="146798756" type="building.yes" color="255,230,230" fill="1" layer="-1.00" shape="2218.75,700.72 2233.48,715.85 2243.98,705.79 2229.19,690.58 2225.85,693.80 2220.16,699.28 2218.75,700.72"/>